* NGSPICE file created from decred_controller.ext - technology: sky130A

* Black-box entry subcircuit for sky130_fd_sc_hd__dfxtp_4 abstract view
.subckt sky130_fd_sc_hd__dfxtp_4 CLK D VGND VNB VPB VPWR Q
.ends

* Black-box entry subcircuit for sky130_fd_sc_hd__decap_4 abstract view
.subckt sky130_fd_sc_hd__decap_4 VGND VNB VPB VPWR
.ends

* Black-box entry subcircuit for sky130_fd_sc_hd__decap_8 abstract view
.subckt sky130_fd_sc_hd__decap_8 VGND VNB VPB VPWR
.ends

* Black-box entry subcircuit for sky130_fd_sc_hd__fill_1 abstract view
.subckt sky130_fd_sc_hd__fill_1 VGND VNB VPB VPWR
.ends

* Black-box entry subcircuit for sky130_fd_sc_hd__inv_2 abstract view
.subckt sky130_fd_sc_hd__inv_2 A VGND VNB VPB VPWR Y
.ends

* Black-box entry subcircuit for sky130_fd_sc_hd__decap_6 abstract view
.subckt sky130_fd_sc_hd__decap_6 VGND VNB VPB VPWR
.ends

* Black-box entry subcircuit for sky130_fd_sc_hd__o21a_4 abstract view
.subckt sky130_fd_sc_hd__o21a_4 A1 A2 B1 VGND VNB VPB VPWR X
.ends

* Black-box entry subcircuit for sky130_fd_sc_hd__a21oi_4 abstract view
.subckt sky130_fd_sc_hd__a21oi_4 A1 A2 B1 VGND VNB VPB VPWR Y
.ends

* Black-box entry subcircuit for sky130_fd_sc_hd__a22oi_4 abstract view
.subckt sky130_fd_sc_hd__a22oi_4 A1 A2 B1 B2 VGND VNB VPB VPWR Y
.ends

* Black-box entry subcircuit for sky130_fd_sc_hd__decap_3 abstract view
.subckt sky130_fd_sc_hd__decap_3 VGND VNB VPB VPWR
.ends

* Black-box entry subcircuit for sky130_fd_sc_hd__nand2_4 abstract view
.subckt sky130_fd_sc_hd__nand2_4 A B VGND VNB VPB VPWR Y
.ends

* Black-box entry subcircuit for sky130_fd_sc_hd__buf_2 abstract view
.subckt sky130_fd_sc_hd__buf_2 A VGND VNB VPB VPWR X
.ends

* Black-box entry subcircuit for sky130_fd_sc_hd__clkbuf_1 abstract view
.subckt sky130_fd_sc_hd__clkbuf_1 A VGND VNB VPB VPWR X
.ends

* Black-box entry subcircuit for sky130_fd_sc_hd__decap_12 abstract view
.subckt sky130_fd_sc_hd__decap_12 VGND VNB VPB VPWR
.ends

* Black-box entry subcircuit for sky130_fd_sc_hd__nor3_4 abstract view
.subckt sky130_fd_sc_hd__nor3_4 A B C VGND VNB VPB VPWR Y
.ends

* Black-box entry subcircuit for sky130_fd_sc_hd__fill_2 abstract view
.subckt sky130_fd_sc_hd__fill_2 VGND VNB VPB VPWR
.ends

* Black-box entry subcircuit for sky130_fd_sc_hd__clkbuf_16 abstract view
.subckt sky130_fd_sc_hd__clkbuf_16 A VGND VNB VPB VPWR X
.ends

* Black-box entry subcircuit for sky130_fd_sc_hd__tapvpwrvgnd_1 abstract view
.subckt sky130_fd_sc_hd__tapvpwrvgnd_1 VGND VPWR
.ends

* Black-box entry subcircuit for sky130_fd_sc_hd__o21ai_4 abstract view
.subckt sky130_fd_sc_hd__o21ai_4 A1 A2 B1 VGND VNB VPB VPWR Y
.ends

* Black-box entry subcircuit for sky130_fd_sc_hd__nor2_4 abstract view
.subckt sky130_fd_sc_hd__nor2_4 A B VGND VNB VPB VPWR Y
.ends

* Black-box entry subcircuit for sky130_fd_sc_hd__and4_4 abstract view
.subckt sky130_fd_sc_hd__and4_4 A B C D VGND VNB VPB VPWR X
.ends

* Black-box entry subcircuit for sky130_fd_sc_hd__xnor2_4 abstract view
.subckt sky130_fd_sc_hd__xnor2_4 A B VGND VNB VPB VPWR Y
.ends

* Black-box entry subcircuit for sky130_fd_sc_hd__o32ai_4 abstract view
.subckt sky130_fd_sc_hd__o32ai_4 A1 A2 A3 B1 B2 VGND VNB VPB VPWR Y
.ends

* Black-box entry subcircuit for sky130_fd_sc_hd__and2_4 abstract view
.subckt sky130_fd_sc_hd__and2_4 A B VGND VNB VPB VPWR X
.ends

* Black-box entry subcircuit for sky130_fd_sc_hd__a41oi_4 abstract view
.subckt sky130_fd_sc_hd__a41oi_4 A1 A2 A3 A4 B1 VGND VNB VPB VPWR Y
.ends

* Black-box entry subcircuit for sky130_fd_sc_hd__xor2_4 abstract view
.subckt sky130_fd_sc_hd__xor2_4 A B VGND VNB VPB VPWR X
.ends

* Black-box entry subcircuit for sky130_fd_sc_hd__a211o_4 abstract view
.subckt sky130_fd_sc_hd__a211o_4 A1 A2 B1 C1 VGND VNB VPB VPWR X
.ends

* Black-box entry subcircuit for sky130_fd_sc_hd__a2bb2oi_4 abstract view
.subckt sky130_fd_sc_hd__a2bb2oi_4 A1_N A2_N B1 B2 VGND VNB VPB VPWR Y
.ends

* Black-box entry subcircuit for sky130_fd_sc_hd__a41o_4 abstract view
.subckt sky130_fd_sc_hd__a41o_4 A1 A2 A3 A4 B1 VGND VNB VPB VPWR X
.ends

* Black-box entry subcircuit for sky130_fd_sc_hd__or2_4 abstract view
.subckt sky130_fd_sc_hd__or2_4 A B VGND VNB VPB VPWR X
.ends

* Black-box entry subcircuit for sky130_fd_sc_hd__nand3_4 abstract view
.subckt sky130_fd_sc_hd__nand3_4 A B C VGND VNB VPB VPWR Y
.ends

* Black-box entry subcircuit for sky130_fd_sc_hd__nand4_4 abstract view
.subckt sky130_fd_sc_hd__nand4_4 A B C D VGND VNB VPB VPWR Y
.ends

* Black-box entry subcircuit for sky130_fd_sc_hd__a21o_4 abstract view
.subckt sky130_fd_sc_hd__a21o_4 A1 A2 B1 VGND VNB VPB VPWR X
.ends

* Black-box entry subcircuit for sky130_fd_sc_hd__and3_4 abstract view
.subckt sky130_fd_sc_hd__and3_4 A B C VGND VNB VPB VPWR X
.ends

* Black-box entry subcircuit for sky130_fd_sc_hd__o41ai_4 abstract view
.subckt sky130_fd_sc_hd__o41ai_4 A1 A2 A3 A4 B1 VGND VNB VPB VPWR Y
.ends

* Black-box entry subcircuit for sky130_fd_sc_hd__nor4_4 abstract view
.subckt sky130_fd_sc_hd__nor4_4 A B C D VGND VNB VPB VPWR Y
.ends

* Black-box entry subcircuit for sky130_fd_sc_hd__o41a_4 abstract view
.subckt sky130_fd_sc_hd__o41a_4 A1 A2 A3 A4 B1 VGND VNB VPB VPWR X
.ends

* Black-box entry subcircuit for sky130_fd_sc_hd__a2bb2o_4 abstract view
.subckt sky130_fd_sc_hd__a2bb2o_4 A1_N A2_N B1 B2 VGND VNB VPB VPWR X
.ends

* Black-box entry subcircuit for sky130_fd_sc_hd__a21boi_4 abstract view
.subckt sky130_fd_sc_hd__a21boi_4 A1 A2 B1_N VGND VNB VPB VPWR Y
.ends

* Black-box entry subcircuit for sky130_fd_sc_hd__a32o_4 abstract view
.subckt sky130_fd_sc_hd__a32o_4 A1 A2 A3 B1 B2 VGND VNB VPB VPWR X
.ends

* Black-box entry subcircuit for sky130_fd_sc_hd__o32a_4 abstract view
.subckt sky130_fd_sc_hd__o32a_4 A1 A2 A3 B1 B2 VGND VNB VPB VPWR X
.ends

* Black-box entry subcircuit for sky130_fd_sc_hd__or4_4 abstract view
.subckt sky130_fd_sc_hd__or4_4 A B C D VGND VNB VPB VPWR X
.ends

* Black-box entry subcircuit for sky130_fd_sc_hd__diode_2 abstract view
.subckt sky130_fd_sc_hd__diode_2 DIODE VGND VNB VPB VPWR
.ends

* Black-box entry subcircuit for sky130_fd_sc_hd__o22a_4 abstract view
.subckt sky130_fd_sc_hd__o22a_4 A1 A2 B1 B2 VGND VNB VPB VPWR X
.ends

* Black-box entry subcircuit for sky130_fd_sc_hd__a2111o_4 abstract view
.subckt sky130_fd_sc_hd__a2111o_4 A1 A2 B1 C1 D1 VGND VNB VPB VPWR X
.ends

.subckt decred_controller CLK_LED DATA_AVAILABLE DATA_FROM_HASH[0] DATA_FROM_HASH[1]
+ DATA_FROM_HASH[2] DATA_FROM_HASH[3] DATA_FROM_HASH[4] DATA_FROM_HASH[5] DATA_FROM_HASH[6]
+ DATA_FROM_HASH[7] DATA_TO_HASH[0] DATA_TO_HASH[1] DATA_TO_HASH[2] DATA_TO_HASH[3]
+ DATA_TO_HASH[4] DATA_TO_HASH[5] DATA_TO_HASH[6] DATA_TO_HASH[7] EXT_RESET_N_fromHost
+ EXT_RESET_N_toClient HASH_ADDR[0] HASH_ADDR[1] HASH_ADDR[2] HASH_ADDR[3] HASH_ADDR[4]
+ HASH_ADDR[5] HASH_EN HASH_LED ID_fromClient ID_toHost IRQ_OUT_fromClient IRQ_OUT_toHost
+ M1_CLK_IN M1_CLK_SELECT MACRO_RD_SELECT MACRO_WR_SELECT MISO_fromClient MISO_toHost
+ MOSI_fromHost MOSI_toClient PLL_INPUT S1_CLK_IN S1_CLK_SELECT SCLK_fromHost SCLK_toClient
+ SCSN_fromHost SCSN_toClient SPI_CLK_RESET_N THREAD_COUNT[0] THREAD_COUNT[1] THREAD_COUNT[2]
+ THREAD_COUNT[3] m1_clk_local VPWR VGND
X_2106_ _2121_/CLK _1850_/Y VGND VGND VPWR VPWR _1211_/A sky130_fd_sc_hd__dfxtp_4
XFILLER_39_288 VGND VGND VPWR VPWR sky130_fd_sc_hd__decap_4
XFILLER_39_233 VGND VGND VPWR VPWR sky130_fd_sc_hd__decap_8
X_2037_ _2022_/CLK _1879_/C VGND VGND VPWR VPWR _2031_/D sky130_fd_sc_hd__dfxtp_4
XFILLER_18_406 VGND VGND VPWR VPWR sky130_fd_sc_hd__fill_1
XFILLER_45_203 VGND VGND VPWR VPWR sky130_fd_sc_hd__decap_4
XFILLER_26_30 VGND VGND VPWR VPWR sky130_fd_sc_hd__fill_1
XFILLER_13_188 VGND VGND VPWR VPWR sky130_fd_sc_hd__decap_4
XFILLER_5_398 VGND VGND VPWR VPWR sky130_fd_sc_hd__decap_8
XFILLER_5_365 VGND VGND VPWR VPWR sky130_fd_sc_hd__fill_1
X_1270_ _1209_/A VGND VGND VPWR VPWR _1365_/A sky130_fd_sc_hd__inv_2
XFILLER_36_269 VGND VGND VPWR VPWR sky130_fd_sc_hd__decap_6
XFILLER_8_181 VGND VGND VPWR VPWR sky130_fd_sc_hd__decap_4
X_1606_ _1596_/A _1596_/B _1605_/Y VGND VGND VPWR VPWR _1606_/X sky130_fd_sc_hd__o21a_4
X_1468_ _1464_/X _1467_/X _1175_/X VGND VGND VPWR VPWR _1468_/Y sky130_fd_sc_hd__a21oi_4
X_1399_ THREAD_COUNT[2] _1345_/X _1397_/Y _1398_/Y VGND VGND VPWR VPWR _1399_/Y sky130_fd_sc_hd__a22oi_4
X_1537_ _2196_/Q _1525_/X _1536_/X VGND VGND VPWR VPWR _1537_/X sky130_fd_sc_hd__o21a_4
XFILLER_35_280 VGND VGND VPWR VPWR sky130_fd_sc_hd__decap_4
XFILLER_12_10 VGND VGND VPWR VPWR sky130_fd_sc_hd__decap_4
XFILLER_2_335 VGND VGND VPWR VPWR sky130_fd_sc_hd__fill_1
XFILLER_12_87 VGND VGND VPWR VPWR sky130_fd_sc_hd__decap_4
XFILLER_18_236 VGND VGND VPWR VPWR sky130_fd_sc_hd__decap_3
XFILLER_33_217 VGND VGND VPWR VPWR sky130_fd_sc_hd__fill_1
X_1253_ _1253_/A _1230_/B VGND VGND VPWR VPWR _1253_/Y sky130_fd_sc_hd__nand2_4
X_1322_ _1321_/X VGND VGND VPWR VPWR _1323_/C sky130_fd_sc_hd__buf_2
Xclkbuf_1_0_0_m1_clk_local clkbuf_0_m1_clk_local/X VGND VGND VPWR VPWR clkbuf_2_1_0_m1_clk_local/A
+ sky130_fd_sc_hd__clkbuf_1
XFILLER_5_184 VGND VGND VPWR VPWR sky130_fd_sc_hd__decap_4
XFILLER_64_397 VGND VGND VPWR VPWR sky130_fd_sc_hd__decap_6
XFILLER_64_342 VGND VGND VPWR VPWR sky130_fd_sc_hd__decap_12
XFILLER_49_361 VGND VGND VPWR VPWR sky130_fd_sc_hd__decap_4
X_1184_ _1184_/A _2220_/Q _1184_/C VGND VGND VPWR VPWR _1185_/A sky130_fd_sc_hd__nor3_4
XFILLER_32_272 VGND VGND VPWR VPWR sky130_fd_sc_hd__decap_3
XFILLER_55_342 VGND VGND VPWR VPWR sky130_fd_sc_hd__decap_8
XFILLER_15_228 VGND VGND VPWR VPWR sky130_fd_sc_hd__decap_8
XFILLER_23_97 VGND VGND VPWR VPWR sky130_fd_sc_hd__fill_1
XFILLER_38_309 VGND VGND VPWR VPWR sky130_fd_sc_hd__fill_2
XFILLER_2_198 VGND VGND VPWR VPWR sky130_fd_sc_hd__decap_4
XFILLER_2_176 VGND VGND VPWR VPWR sky130_fd_sc_hd__fill_1
XFILLER_2_154 VGND VGND VPWR VPWR sky130_fd_sc_hd__decap_4
XFILLER_2_132 VGND VGND VPWR VPWR sky130_fd_sc_hd__decap_4
XFILLER_61_312 VGND VGND VPWR VPWR sky130_fd_sc_hd__fill_1
XFILLER_61_301 VGND VGND VPWR VPWR sky130_fd_sc_hd__decap_4
XFILLER_48_72 VGND VGND VPWR VPWR sky130_fd_sc_hd__fill_2
XFILLER_61_367 VGND VGND VPWR VPWR sky130_fd_sc_hd__decap_12
XFILLER_61_356 VGND VGND VPWR VPWR sky130_fd_sc_hd__decap_8
X_1940_ _1940_/A VGND VGND VPWR VPWR _1940_/Y sky130_fd_sc_hd__inv_2
X_1871_ _1864_/Y VGND VGND VPWR VPWR _1874_/A sky130_fd_sc_hd__buf_2
XFILLER_9_22 VGND VGND VPWR VPWR sky130_fd_sc_hd__decap_6
XFILLER_14_250 VGND VGND VPWR VPWR sky130_fd_sc_hd__decap_4
XFILLER_50_3 VGND VGND VPWR VPWR sky130_fd_sc_hd__decap_4
X_1236_ _2089_/Q VGND VGND VPWR VPWR _1236_/Y sky130_fd_sc_hd__inv_2
Xclkbuf_0_m1_clk_local m1_clk_local VGND VGND VPWR VPWR clkbuf_0_m1_clk_local/X sky130_fd_sc_hd__clkbuf_16
X_1305_ _1917_/A VGND VGND VPWR VPWR _1307_/B sky130_fd_sc_hd__buf_2
XFILLER_52_345 VGND VGND VPWR VPWR sky130_fd_sc_hd__fill_2
X_1167_ _1164_/X _2074_/Q _1166_/X VGND VGND VPWR VPWR _1167_/Y sky130_fd_sc_hd__a21oi_4
X_1098_ _1038_/X VGND VGND VPWR VPWR _1446_/A sky130_fd_sc_hd__buf_2
XFILLER_55_172 VGND VGND VPWR VPWR sky130_fd_sc_hd__decap_4
XFILLER_43_301 VGND VGND VPWR VPWR sky130_fd_sc_hd__decap_4
XFILLER_18_75 VGND VGND VPWR VPWR sky130_fd_sc_hd__fill_1
XPHY_554 VGND VPWR sky130_fd_sc_hd__tapvpwrvgnd_1
XPHY_543 VGND VPWR sky130_fd_sc_hd__tapvpwrvgnd_1
XPHY_532 VGND VPWR sky130_fd_sc_hd__tapvpwrvgnd_1
XPHY_521 VGND VPWR sky130_fd_sc_hd__tapvpwrvgnd_1
XPHY_510 VGND VPWR sky130_fd_sc_hd__tapvpwrvgnd_1
XFILLER_34_63 VGND VGND VPWR VPWR sky130_fd_sc_hd__decap_4
XFILLER_7_213 VGND VGND VPWR VPWR sky130_fd_sc_hd__decap_4
X_2070_ _2056_/CLK _2070_/D VGND VGND VPWR VPWR _2070_/Q sky130_fd_sc_hd__dfxtp_4
Xclkbuf_3_3_0_m1_clk_local clkbuf_3_3_0_m1_clk_local/A VGND VGND VPWR VPWR _2016_/CLK
+ sky130_fd_sc_hd__clkbuf_1
XFILLER_38_139 VGND VGND VPWR VPWR sky130_fd_sc_hd__decap_4
XFILLER_38_117 VGND VGND VPWR VPWR sky130_fd_sc_hd__decap_8
XFILLER_61_175 VGND VGND VPWR VPWR sky130_fd_sc_hd__decap_8
XFILLER_46_194 VGND VGND VPWR VPWR sky130_fd_sc_hd__fill_2
XFILLER_46_172 VGND VGND VPWR VPWR sky130_fd_sc_hd__fill_1
XFILLER_34_389 VGND VGND VPWR VPWR sky130_fd_sc_hd__decap_8
XFILLER_34_356 VGND VGND VPWR VPWR sky130_fd_sc_hd__decap_4
XFILLER_34_323 VGND VGND VPWR VPWR sky130_fd_sc_hd__decap_4
X_1021_ _1024_/A _1034_/A _1020_/X VGND VGND VPWR VPWR _1021_/Y sky130_fd_sc_hd__o21ai_4
XFILLER_19_364 VGND VGND VPWR VPWR sky130_fd_sc_hd__fill_2
X_1785_ _1814_/A _2121_/Q VGND VGND VPWR VPWR _1785_/Y sky130_fd_sc_hd__nand2_4
X_1923_ _1902_/Y _1918_/A _1922_/Y VGND VGND VPWR VPWR _1923_/Y sky130_fd_sc_hd__o21ai_4
X_1854_ _1856_/A _1856_/B VGND VGND VPWR VPWR _1854_/Y sky130_fd_sc_hd__nor2_4
X_1219_ _1312_/A _1218_/X VGND VGND VPWR VPWR _1708_/C sky130_fd_sc_hd__nor2_4
XFILLER_25_323 VGND VGND VPWR VPWR sky130_fd_sc_hd__decap_4
XFILLER_25_301 VGND VGND VPWR VPWR sky130_fd_sc_hd__decap_4
X_2199_ _2207_/CLK _1532_/X VGND VGND VPWR VPWR _2199_/Q sky130_fd_sc_hd__dfxtp_4
XFILLER_25_345 VGND VGND VPWR VPWR sky130_fd_sc_hd__fill_1
XFILLER_4_205 VGND VGND VPWR VPWR sky130_fd_sc_hd__decap_8
XFILLER_20_32 VGND VGND VPWR VPWR sky130_fd_sc_hd__decap_8
XFILLER_29_41 VGND VGND VPWR VPWR sky130_fd_sc_hd__decap_6
XFILLER_0_400 VGND VGND VPWR VPWR sky130_fd_sc_hd__decap_3
XFILLER_43_175 VGND VGND VPWR VPWR sky130_fd_sc_hd__decap_8
XFILLER_43_142 VGND VGND VPWR VPWR sky130_fd_sc_hd__fill_1
XFILLER_31_326 VGND VGND VPWR VPWR sky130_fd_sc_hd__decap_4
XPHY_395 VGND VPWR sky130_fd_sc_hd__tapvpwrvgnd_1
XPHY_384 VGND VPWR sky130_fd_sc_hd__tapvpwrvgnd_1
XPHY_373 VGND VPWR sky130_fd_sc_hd__tapvpwrvgnd_1
XPHY_362 VGND VPWR sky130_fd_sc_hd__tapvpwrvgnd_1
XPHY_351 VGND VPWR sky130_fd_sc_hd__tapvpwrvgnd_1
XPHY_340 VGND VPWR sky130_fd_sc_hd__tapvpwrvgnd_1
X_1570_ _1570_/A SPI_CLK_RESET_N _1570_/C _1569_/X VGND VGND VPWR VPWR _2187_/D sky130_fd_sc_hd__and4_4
XFILLER_3_271 VGND VGND VPWR VPWR sky130_fd_sc_hd__decap_4
X_2122_ _2127_/CLK _2122_/D VGND VGND VPWR VPWR _1814_/A sky130_fd_sc_hd__dfxtp_4
X_2053_ _2056_/CLK DATA_FROM_HASH[2] VGND VGND VPWR VPWR _2053_/Q sky130_fd_sc_hd__dfxtp_4
XFILLER_13_3 VGND VGND VPWR VPWR sky130_fd_sc_hd__decap_8
XFILLER_34_197 VGND VGND VPWR VPWR sky130_fd_sc_hd__decap_4
XFILLER_34_142 VGND VGND VPWR VPWR sky130_fd_sc_hd__decap_4
X_1004_ _1004_/A VGND VGND VPWR VPWR _1004_/X sky130_fd_sc_hd__buf_2
X_1837_ _2113_/Q _1836_/Y VGND VGND VPWR VPWR _1837_/Y sky130_fd_sc_hd__xnor2_4
X_1906_ _1904_/Y _1473_/B _1905_/X _1407_/Y _1889_/X VGND VGND VPWR VPWR _1906_/Y
+ sky130_fd_sc_hd__o32ai_4
X_1768_ _1746_/A _1940_/A _1767_/Y VGND VGND VPWR VPWR _1768_/Y sky130_fd_sc_hd__o21ai_4
X_1699_ _1697_/A _2147_/Q VGND VGND VPWR VPWR _2148_/D sky130_fd_sc_hd__and2_4
XFILLER_25_164 VGND VGND VPWR VPWR sky130_fd_sc_hd__decap_6
XFILLER_17_109 VGND VGND VPWR VPWR sky130_fd_sc_hd__decap_4
XFILLER_40_112 VGND VGND VPWR VPWR sky130_fd_sc_hd__decap_4
XFILLER_13_359 VGND VGND VPWR VPWR sky130_fd_sc_hd__decap_6
XFILLER_31_97 VGND VGND VPWR VPWR sky130_fd_sc_hd__decap_6
XFILLER_63_215 VGND VGND VPWR VPWR sky130_fd_sc_hd__decap_3
XFILLER_48_267 VGND VGND VPWR VPWR sky130_fd_sc_hd__decap_8
XFILLER_0_274 VGND VGND VPWR VPWR sky130_fd_sc_hd__decap_4
XFILLER_63_248 VGND VGND VPWR VPWR sky130_fd_sc_hd__decap_6
XFILLER_31_123 VGND VGND VPWR VPWR sky130_fd_sc_hd__fill_2
XPHY_170 VGND VPWR sky130_fd_sc_hd__tapvpwrvgnd_1
XFILLER_16_142 VGND VGND VPWR VPWR sky130_fd_sc_hd__decap_8
XFILLER_16_186 VGND VGND VPWR VPWR sky130_fd_sc_hd__decap_4
X_1622_ _1621_/C _1609_/A _1609_/C _1609_/D _1101_/X VGND VGND VPWR VPWR _1622_/Y
+ sky130_fd_sc_hd__a41oi_4
XPHY_181 VGND VPWR sky130_fd_sc_hd__tapvpwrvgnd_1
XPHY_192 VGND VPWR sky130_fd_sc_hd__tapvpwrvgnd_1
XFILLER_8_374 VGND VGND VPWR VPWR sky130_fd_sc_hd__decap_4
XFILLER_8_396 VGND VGND VPWR VPWR sky130_fd_sc_hd__fill_1
X_1484_ _1484_/A _2065_/Q VGND VGND VPWR VPWR _1484_/X sky130_fd_sc_hd__xor2_4
X_1553_ _1456_/B VGND VGND VPWR VPWR _1553_/Y sky130_fd_sc_hd__inv_2
X_2036_ _2022_/CLK _2036_/D VGND VGND VPWR VPWR _2036_/Q sky130_fd_sc_hd__dfxtp_4
X_2105_ _2121_/CLK _2105_/D VGND VGND VPWR VPWR _1829_/C sky130_fd_sc_hd__dfxtp_4
XFILLER_39_245 VGND VGND VPWR VPWR sky130_fd_sc_hd__decap_4
XFILLER_22_123 VGND VGND VPWR VPWR sky130_fd_sc_hd__fill_1
XFILLER_22_145 VGND VGND VPWR VPWR sky130_fd_sc_hd__decap_8
XFILLER_60_218 VGND VGND VPWR VPWR sky130_fd_sc_hd__decap_6
XFILLER_26_97 VGND VGND VPWR VPWR sky130_fd_sc_hd__fill_1
XFILLER_26_53 VGND VGND VPWR VPWR sky130_fd_sc_hd__decap_4
XFILLER_5_355 VGND VGND VPWR VPWR sky130_fd_sc_hd__fill_1
XFILLER_36_226 VGND VGND VPWR VPWR sky130_fd_sc_hd__decap_4
XFILLER_36_215 VGND VGND VPWR VPWR sky130_fd_sc_hd__fill_2
X_1605_ _1574_/A _1604_/Y _1599_/X _1596_/A _1101_/X VGND VGND VPWR VPWR _1605_/Y
+ sky130_fd_sc_hd__a41oi_4
X_1536_ _2197_/Q _1526_/X _1535_/X VGND VGND VPWR VPWR _1536_/X sky130_fd_sc_hd__o21a_4
XFILLER_59_329 VGND VGND VPWR VPWR sky130_fd_sc_hd__fill_1
X_1467_ _1999_/D _1355_/X _1172_/X _1466_/Y VGND VGND VPWR VPWR _1467_/X sky130_fd_sc_hd__a211o_4
X_1398_ _2101_/Q _1397_/B _1708_/C _1708_/A VGND VGND VPWR VPWR _1398_/Y sky130_fd_sc_hd__a2bb2oi_4
X_2019_ _2110_/CLK _2019_/D VGND VGND VPWR VPWR DATA_TO_HASH[0] sky130_fd_sc_hd__dfxtp_4
XFILLER_50_262 VGND VGND VPWR VPWR sky130_fd_sc_hd__decap_4
XFILLER_37_30 VGND VGND VPWR VPWR sky130_fd_sc_hd__decap_4
XFILLER_18_204 VGND VGND VPWR VPWR sky130_fd_sc_hd__decap_8
XFILLER_53_62 VGND VGND VPWR VPWR sky130_fd_sc_hd__decap_6
XFILLER_41_240 VGND VGND VPWR VPWR sky130_fd_sc_hd__decap_4
XFILLER_5_174 VGND VGND VPWR VPWR sky130_fd_sc_hd__decap_8
XFILLER_5_130 VGND VGND VPWR VPWR sky130_fd_sc_hd__decap_4
XFILLER_49_373 VGND VGND VPWR VPWR sky130_fd_sc_hd__decap_6
X_1252_ _1252_/A _1252_/B VGND VGND VPWR VPWR _1252_/Y sky130_fd_sc_hd__nand2_4
X_1321_ _1971_/A _1320_/Y _1066_/A _1066_/D _1001_/A VGND VGND VPWR VPWR _1321_/X
+ sky130_fd_sc_hd__a41o_4
XFILLER_64_354 VGND VGND VPWR VPWR sky130_fd_sc_hd__decap_12
X_1183_ _1205_/A VGND VGND VPWR VPWR _1184_/C sky130_fd_sc_hd__inv_2
Xclkbuf_3_4_0_addressalyzerBlock.SPI_CLK clkbuf_3_5_0_addressalyzerBlock.SPI_CLK/A
+ VGND VGND VPWR VPWR clkbuf_4_9_0_addressalyzerBlock.SPI_CLK/A sky130_fd_sc_hd__clkbuf_1
XFILLER_59_137 VGND VGND VPWR VPWR sky130_fd_sc_hd__decap_8
X_1519_ _1503_/A _1762_/C _1510_/X VGND VGND VPWR VPWR _1519_/X sky130_fd_sc_hd__o21a_4
XFILLER_55_365 VGND VGND VPWR VPWR sky130_fd_sc_hd__fill_1
XFILLER_55_398 VGND VGND VPWR VPWR sky130_fd_sc_hd__decap_8
XFILLER_23_21 VGND VGND VPWR VPWR sky130_fd_sc_hd__fill_1
XFILLER_64_94 VGND VGND VPWR VPWR sky130_fd_sc_hd__decap_12
XFILLER_46_398 VGND VGND VPWR VPWR sky130_fd_sc_hd__fill_1
XFILLER_46_387 VGND VGND VPWR VPWR sky130_fd_sc_hd__decap_8
XFILLER_46_332 VGND VGND VPWR VPWR sky130_fd_sc_hd__decap_4
XFILLER_61_379 VGND VGND VPWR VPWR sky130_fd_sc_hd__decap_4
X_1870_ _1930_/A _1865_/X _1869_/Y VGND VGND VPWR VPWR _2097_/D sky130_fd_sc_hd__o21ai_4
XFILLER_43_3 VGND VGND VPWR VPWR sky130_fd_sc_hd__fill_1
X_1235_ _1232_/Y _1233_/X _1234_/Y VGND VGND VPWR VPWR _1235_/Y sky130_fd_sc_hd__o21ai_4
X_1166_ _1166_/A VGND VGND VPWR VPWR _1166_/X sky130_fd_sc_hd__buf_2
X_1304_ _1863_/B VGND VGND VPWR VPWR _1917_/A sky130_fd_sc_hd__buf_2
X_1097_ _1058_/A VGND VGND VPWR VPWR _1097_/Y sky130_fd_sc_hd__inv_2
X_1999_ _2127_/CLK _1999_/D VGND VGND VPWR VPWR _1999_/Q sky130_fd_sc_hd__dfxtp_4
XFILLER_47_118 VGND VGND VPWR VPWR sky130_fd_sc_hd__decap_4
XPHY_500 VGND VPWR sky130_fd_sc_hd__tapvpwrvgnd_1
XFILLER_43_335 VGND VGND VPWR VPWR sky130_fd_sc_hd__decap_6
XFILLER_28_398 VGND VGND VPWR VPWR sky130_fd_sc_hd__decap_8
XFILLER_28_343 VGND VGND VPWR VPWR sky130_fd_sc_hd__decap_4
XFILLER_18_32 VGND VGND VPWR VPWR sky130_fd_sc_hd__decap_4
XPHY_555 VGND VPWR sky130_fd_sc_hd__tapvpwrvgnd_1
XPHY_544 VGND VPWR sky130_fd_sc_hd__tapvpwrvgnd_1
XPHY_533 VGND VPWR sky130_fd_sc_hd__tapvpwrvgnd_1
XPHY_522 VGND VPWR sky130_fd_sc_hd__tapvpwrvgnd_1
XPHY_511 VGND VPWR sky130_fd_sc_hd__tapvpwrvgnd_1
XFILLER_11_221 VGND VGND VPWR VPWR sky130_fd_sc_hd__decap_12
XFILLER_59_94 VGND VGND VPWR VPWR sky130_fd_sc_hd__decap_4
X_1020_ _2242_/Q _1016_/B VGND VGND VPWR VPWR _1020_/X sky130_fd_sc_hd__or2_4
X_1922_ _1924_/A _1918_/B _1922_/C VGND VGND VPWR VPWR _1922_/Y sky130_fd_sc_hd__nand3_4
XFILLER_34_335 VGND VGND VPWR VPWR sky130_fd_sc_hd__fill_1
X_1784_ _1784_/A VGND VGND VPWR VPWR _1813_/D sky130_fd_sc_hd__inv_2
X_1853_ _1772_/A _1852_/Y VGND VGND VPWR VPWR _2104_/D sky130_fd_sc_hd__xor2_4
XFILLER_29_118 VGND VGND VPWR VPWR sky130_fd_sc_hd__decap_4
XFILLER_37_184 VGND VGND VPWR VPWR sky130_fd_sc_hd__decap_4
X_1218_ _1184_/C VGND VGND VPWR VPWR _1218_/X sky130_fd_sc_hd__buf_2
X_1149_ _1149_/A _1149_/B VGND VGND VPWR VPWR _1150_/A sky130_fd_sc_hd__nor2_4
X_2198_ _2207_/CLK _1534_/X VGND VGND VPWR VPWR _2198_/Q sky130_fd_sc_hd__dfxtp_4
XFILLER_52_176 VGND VGND VPWR VPWR sky130_fd_sc_hd__decap_4
XFILLER_20_88 VGND VGND VPWR VPWR sky130_fd_sc_hd__decap_4
XFILLER_45_52 VGND VGND VPWR VPWR sky130_fd_sc_hd__decap_8
XPHY_352 VGND VPWR sky130_fd_sc_hd__tapvpwrvgnd_1
XFILLER_31_349 VGND VGND VPWR VPWR sky130_fd_sc_hd__decap_4
XPHY_341 VGND VPWR sky130_fd_sc_hd__tapvpwrvgnd_1
XPHY_330 VGND VPWR sky130_fd_sc_hd__tapvpwrvgnd_1
XFILLER_28_151 VGND VGND VPWR VPWR sky130_fd_sc_hd__fill_2
XFILLER_24_390 VGND VGND VPWR VPWR sky130_fd_sc_hd__decap_6
XFILLER_61_62 VGND VGND VPWR VPWR sky130_fd_sc_hd__decap_12
XFILLER_61_51 VGND VGND VPWR VPWR sky130_fd_sc_hd__decap_8
XPHY_396 VGND VPWR sky130_fd_sc_hd__tapvpwrvgnd_1
XPHY_385 VGND VPWR sky130_fd_sc_hd__tapvpwrvgnd_1
XPHY_374 VGND VPWR sky130_fd_sc_hd__tapvpwrvgnd_1
XPHY_363 VGND VPWR sky130_fd_sc_hd__tapvpwrvgnd_1
XFILLER_6_68 VGND VGND VPWR VPWR sky130_fd_sc_hd__decap_6
XFILLER_3_294 VGND VGND VPWR VPWR sky130_fd_sc_hd__decap_8
X_2121_ _2121_/CLK _1816_/X VGND VGND VPWR VPWR _2121_/Q sky130_fd_sc_hd__dfxtp_4
X_2052_ _2083_/CLK DATA_FROM_HASH[1] VGND VGND VPWR VPWR _2044_/D sky130_fd_sc_hd__dfxtp_4
XFILLER_19_140 VGND VGND VPWR VPWR sky130_fd_sc_hd__decap_8
XFILLER_19_162 VGND VGND VPWR VPWR sky130_fd_sc_hd__decap_4
XFILLER_19_184 VGND VGND VPWR VPWR sky130_fd_sc_hd__decap_8
X_1003_ _1003_/A VGND VGND VPWR VPWR _1003_/X sky130_fd_sc_hd__buf_2
X_1905_ _1905_/A VGND VGND VPWR VPWR _1905_/X sky130_fd_sc_hd__buf_2
XFILLER_34_154 VGND VGND VPWR VPWR sky130_fd_sc_hd__fill_1
X_1836_ _1836_/A _1836_/B _1836_/C _1831_/Y VGND VGND VPWR VPWR _1836_/Y sky130_fd_sc_hd__nand4_4
X_1767_ _1739_/A _1867_/B _2131_/Q VGND VGND VPWR VPWR _1767_/Y sky130_fd_sc_hd__nand3_4
X_1698_ _1697_/A SCLK_fromHost VGND VGND VPWR VPWR _1698_/X sky130_fd_sc_hd__and2_4
XFILLER_25_143 VGND VGND VPWR VPWR sky130_fd_sc_hd__decap_4
XFILLER_15_11 VGND VGND VPWR VPWR sky130_fd_sc_hd__fill_2
XFILLER_40_179 VGND VGND VPWR VPWR sky130_fd_sc_hd__decap_4
XFILLER_15_88 VGND VGND VPWR VPWR sky130_fd_sc_hd__decap_12
XFILLER_21_371 VGND VGND VPWR VPWR sky130_fd_sc_hd__fill_1
XFILLER_31_179 VGND VGND VPWR VPWR sky130_fd_sc_hd__decap_4
XPHY_171 VGND VPWR sky130_fd_sc_hd__tapvpwrvgnd_1
XPHY_160 VGND VPWR sky130_fd_sc_hd__tapvpwrvgnd_1
XPHY_182 VGND VPWR sky130_fd_sc_hd__tapvpwrvgnd_1
XPHY_193 VGND VPWR sky130_fd_sc_hd__tapvpwrvgnd_1
X_1621_ _1619_/Y _1621_/B _1621_/C _1609_/D VGND VGND VPWR VPWR _1621_/X sky130_fd_sc_hd__and4_4
X_1552_ _1551_/X VGND VGND VPWR VPWR _1552_/Y sky130_fd_sc_hd__inv_2
XFILLER_12_393 VGND VGND VPWR VPWR sky130_fd_sc_hd__decap_4
X_2104_ _2110_/CLK _2104_/D VGND VGND VPWR VPWR _1772_/A sky130_fd_sc_hd__dfxtp_4
X_1483_ _1105_/B _2059_/Q VGND VGND VPWR VPWR _1483_/X sky130_fd_sc_hd__xor2_4
XFILLER_62_271 VGND VGND VPWR VPWR sky130_fd_sc_hd__decap_4
X_2035_ _2027_/CLK _1883_/C VGND VGND VPWR VPWR _2029_/D sky130_fd_sc_hd__dfxtp_4
X_1819_ _1827_/B _1813_/C VGND VGND VPWR VPWR _1820_/B sky130_fd_sc_hd__nand2_4
XFILLER_26_32 VGND VGND VPWR VPWR sky130_fd_sc_hd__fill_2
XFILLER_42_53 VGND VGND VPWR VPWR sky130_fd_sc_hd__decap_4
XFILLER_26_76 VGND VGND VPWR VPWR sky130_fd_sc_hd__decap_4
XFILLER_44_271 VGND VGND VPWR VPWR sky130_fd_sc_hd__decap_4
XFILLER_8_150 VGND VGND VPWR VPWR sky130_fd_sc_hd__decap_3
X_1604_ _1595_/C VGND VGND VPWR VPWR _1604_/Y sky130_fd_sc_hd__inv_2
X_1535_ _1504_/A VGND VGND VPWR VPWR _1535_/X sky130_fd_sc_hd__buf_2
X_1397_ _1395_/Y _1397_/B _1396_/Y VGND VGND VPWR VPWR _1397_/Y sky130_fd_sc_hd__nand3_4
X_1466_ _1387_/X _1466_/B VGND VGND VPWR VPWR _1466_/Y sky130_fd_sc_hd__nor2_4
XFILLER_50_274 VGND VGND VPWR VPWR sky130_fd_sc_hd__fill_1
X_2018_ _2181_/CLK _2131_/Q VGND VGND VPWR VPWR _2017_/D sky130_fd_sc_hd__dfxtp_4
XFILLER_10_105 VGND VGND VPWR VPWR sky130_fd_sc_hd__decap_4
XFILLER_50_296 VGND VGND VPWR VPWR sky130_fd_sc_hd__decap_12
XFILLER_2_337 VGND VGND VPWR VPWR sky130_fd_sc_hd__decap_6
XFILLER_58_396 VGND VGND VPWR VPWR sky130_fd_sc_hd__fill_1
XFILLER_58_363 VGND VGND VPWR VPWR sky130_fd_sc_hd__decap_8
XFILLER_37_53 VGND VGND VPWR VPWR sky130_fd_sc_hd__decap_8
XFILLER_5_153 VGND VGND VPWR VPWR sky130_fd_sc_hd__decap_4
X_1320_ _1309_/A VGND VGND VPWR VPWR _1320_/Y sky130_fd_sc_hd__inv_2
XFILLER_64_311 VGND VGND VPWR VPWR sky130_fd_sc_hd__decap_12
X_1182_ _1148_/A _1150_/A _1048_/A VGND VGND VPWR VPWR _1189_/A sky130_fd_sc_hd__nand3_4
X_1251_ _1274_/A _1251_/B VGND VGND VPWR VPWR _1252_/B sky130_fd_sc_hd__nand2_4
XFILLER_64_366 VGND VGND VPWR VPWR sky130_fd_sc_hd__decap_6
XFILLER_32_241 VGND VGND VPWR VPWR sky130_fd_sc_hd__fill_1
XFILLER_59_127 VGND VGND VPWR VPWR sky130_fd_sc_hd__fill_1
X_1449_ _1449_/A _1309_/A _1449_/C VGND VGND VPWR VPWR _1449_/Y sky130_fd_sc_hd__nor3_4
X_1518_ _1501_/Y _2196_/Q _1517_/X VGND VGND VPWR VPWR _1518_/X sky130_fd_sc_hd__o21a_4
XFILLER_3_3 VGND VGND VPWR VPWR sky130_fd_sc_hd__decap_12
XFILLER_48_30 VGND VGND VPWR VPWR sky130_fd_sc_hd__fill_1
XFILLER_46_311 VGND VGND VPWR VPWR sky130_fd_sc_hd__decap_8
XFILLER_0_15 VGND VGND VPWR VPWR sky130_fd_sc_hd__decap_12
XFILLER_0_59 VGND VGND VPWR VPWR sky130_fd_sc_hd__decap_3
X_1303_ _1753_/C _1279_/Y _1283_/A _1302_/Y VGND VGND VPWR VPWR _1307_/A sky130_fd_sc_hd__a211o_4
XFILLER_49_171 VGND VGND VPWR VPWR sky130_fd_sc_hd__decap_12
X_1234_ _1164_/X _2073_/Q _1166_/A VGND VGND VPWR VPWR _1234_/Y sky130_fd_sc_hd__a21oi_4
X_1165_ _1172_/A VGND VGND VPWR VPWR _1166_/A sky130_fd_sc_hd__inv_2
XFILLER_37_399 VGND VGND VPWR VPWR sky130_fd_sc_hd__decap_8
X_1096_ _1894_/A _1966_/B _1079_/X VGND VGND VPWR VPWR _1096_/Y sky130_fd_sc_hd__a21oi_4
XFILLER_20_255 VGND VGND VPWR VPWR sky130_fd_sc_hd__decap_4
X_1998_ _2022_/CLK _2086_/Q VGND VGND VPWR VPWR _1998_/Q sky130_fd_sc_hd__dfxtp_4
XFILLER_28_300 VGND VGND VPWR VPWR sky130_fd_sc_hd__decap_4
XFILLER_18_22 VGND VGND VPWR VPWR sky130_fd_sc_hd__decap_8
XPHY_534 VGND VPWR sky130_fd_sc_hd__tapvpwrvgnd_1
XPHY_523 VGND VPWR sky130_fd_sc_hd__tapvpwrvgnd_1
XPHY_512 VGND VPWR sky130_fd_sc_hd__tapvpwrvgnd_1
XPHY_501 VGND VPWR sky130_fd_sc_hd__tapvpwrvgnd_1
XFILLER_43_358 VGND VGND VPWR VPWR sky130_fd_sc_hd__fill_1
XFILLER_34_32 VGND VGND VPWR VPWR sky130_fd_sc_hd__decap_12
XFILLER_28_366 VGND VGND VPWR VPWR sky130_fd_sc_hd__decap_12
XFILLER_18_88 VGND VGND VPWR VPWR sky130_fd_sc_hd__decap_4
XPHY_556 VGND VPWR sky130_fd_sc_hd__tapvpwrvgnd_1
XPHY_545 VGND VPWR sky130_fd_sc_hd__tapvpwrvgnd_1
XFILLER_7_226 VGND VGND VPWR VPWR sky130_fd_sc_hd__decap_6
XFILLER_7_259 VGND VGND VPWR VPWR sky130_fd_sc_hd__decap_4
XFILLER_11_233 VGND VGND VPWR VPWR sky130_fd_sc_hd__decap_4
XFILLER_59_62 VGND VGND VPWR VPWR sky130_fd_sc_hd__decap_12
XFILLER_59_51 VGND VGND VPWR VPWR sky130_fd_sc_hd__decap_8
XFILLER_50_97 VGND VGND VPWR VPWR sky130_fd_sc_hd__decap_4
XFILLER_46_152 VGND VGND VPWR VPWR sky130_fd_sc_hd__fill_1
X_1921_ _1316_/Y _1918_/A _1920_/Y VGND VGND VPWR VPWR _1921_/Y sky130_fd_sc_hd__o21ai_4
X_1852_ _1477_/Y _1856_/A _1856_/B VGND VGND VPWR VPWR _1852_/Y sky130_fd_sc_hd__nor3_4
X_1783_ _1783_/A _1817_/B VGND VGND VPWR VPWR _1784_/A sky130_fd_sc_hd__nand2_4
XFILLER_6_270 VGND VGND VPWR VPWR sky130_fd_sc_hd__decap_4
XFILLER_52_122 VGND VGND VPWR VPWR sky130_fd_sc_hd__decap_4
X_1217_ _1145_/A VGND VGND VPWR VPWR _1217_/X sky130_fd_sc_hd__buf_2
X_1148_ _1148_/A VGND VGND VPWR VPWR _1207_/C sky130_fd_sc_hd__buf_2
X_2197_ _2207_/CLK _1537_/X VGND VGND VPWR VPWR _2197_/Q sky130_fd_sc_hd__dfxtp_4
X_1079_ _1067_/Y VGND VGND VPWR VPWR _1079_/X sky130_fd_sc_hd__buf_2
XFILLER_52_199 VGND VGND VPWR VPWR sky130_fd_sc_hd__decap_4
XFILLER_40_328 VGND VGND VPWR VPWR sky130_fd_sc_hd__decap_8
XFILLER_4_229 VGND VGND VPWR VPWR sky130_fd_sc_hd__decap_4
XFILLER_48_406 VGND VGND VPWR VPWR sky130_fd_sc_hd__fill_1
XFILLER_16_303 VGND VGND VPWR VPWR sky130_fd_sc_hd__decap_4
XFILLER_45_75 VGND VGND VPWR VPWR sky130_fd_sc_hd__decap_4
XPHY_386 VGND VPWR sky130_fd_sc_hd__tapvpwrvgnd_1
XPHY_375 VGND VPWR sky130_fd_sc_hd__tapvpwrvgnd_1
XPHY_364 VGND VPWR sky130_fd_sc_hd__tapvpwrvgnd_1
XPHY_353 VGND VPWR sky130_fd_sc_hd__tapvpwrvgnd_1
XFILLER_31_306 VGND VGND VPWR VPWR sky130_fd_sc_hd__decap_4
XPHY_342 VGND VPWR sky130_fd_sc_hd__tapvpwrvgnd_1
XPHY_331 VGND VPWR sky130_fd_sc_hd__tapvpwrvgnd_1
XPHY_320 VGND VPWR sky130_fd_sc_hd__tapvpwrvgnd_1
XFILLER_16_347 VGND VGND VPWR VPWR sky130_fd_sc_hd__decap_4
XFILLER_61_74 VGND VGND VPWR VPWR sky130_fd_sc_hd__decap_12
XPHY_397 VGND VPWR sky130_fd_sc_hd__tapvpwrvgnd_1
X_2120_ _2121_/CLK _1818_/Y VGND VGND VPWR VPWR _1783_/A sky130_fd_sc_hd__dfxtp_4
XFILLER_39_406 VGND VGND VPWR VPWR sky130_fd_sc_hd__fill_1
XFILLER_3_251 VGND VGND VPWR VPWR sky130_fd_sc_hd__fill_1
X_2051_ _2042_/CLK DATA_FROM_HASH[0] VGND VGND VPWR VPWR _2043_/D sky130_fd_sc_hd__dfxtp_4
XFILLER_34_166 VGND VGND VPWR VPWR sky130_fd_sc_hd__decap_4
X_1002_ _1004_/A VGND VGND VPWR VPWR _1003_/A sky130_fd_sc_hd__buf_2
X_1835_ _1834_/X VGND VGND VPWR VPWR _1836_/A sky130_fd_sc_hd__buf_2
X_1904_ _1904_/A VGND VGND VPWR VPWR _1904_/Y sky130_fd_sc_hd__inv_2
X_1766_ _1750_/A VGND VGND VPWR VPWR _1867_/B sky130_fd_sc_hd__buf_2
X_1697_ _1697_/A _2149_/Q VGND VGND VPWR VPWR _2150_/D sky130_fd_sc_hd__and2_4
XFILLER_40_158 VGND VGND VPWR VPWR sky130_fd_sc_hd__decap_6
XFILLER_13_306 VGND VGND VPWR VPWR sky130_fd_sc_hd__decap_3
XFILLER_13_339 VGND VGND VPWR VPWR sky130_fd_sc_hd__decap_4
XFILLER_31_66 VGND VGND VPWR VPWR sky130_fd_sc_hd__fill_1
XFILLER_0_221 VGND VGND VPWR VPWR sky130_fd_sc_hd__decap_4
XFILLER_0_254 VGND VGND VPWR VPWR sky130_fd_sc_hd__decap_12
XFILLER_48_247 VGND VGND VPWR VPWR sky130_fd_sc_hd__decap_6