* NGSPICE file created from decred_controller.ext - technology: sky130A

* Black-box entry subcircuit for sky130_fd_sc_hd__fill_2 abstract view
.subckt sky130_fd_sc_hd__fill_2 VGND VNB VPB VPWR
.ends

* Black-box entry subcircuit for sky130_fd_sc_hd__dfxtp_4 abstract view
.subckt sky130_fd_sc_hd__dfxtp_4 CLK D VGND VNB VPB VPWR Q
.ends

* Black-box entry subcircuit for sky130_fd_sc_hd__decap_4 abstract view
.subckt sky130_fd_sc_hd__decap_4 VGND VNB VPB VPWR
.ends

* Black-box entry subcircuit for sky130_fd_sc_hd__fill_1 abstract view
.subckt sky130_fd_sc_hd__fill_1 VGND VNB VPB VPWR
.ends

* Black-box entry subcircuit for sky130_fd_sc_hd__decap_8 abstract view
.subckt sky130_fd_sc_hd__decap_8 VGND VNB VPB VPWR
.ends

* Black-box entry subcircuit for sky130_fd_sc_hd__inv_2 abstract view
.subckt sky130_fd_sc_hd__inv_2 A VGND VNB VPB VPWR Y
.ends

* Black-box entry subcircuit for sky130_fd_sc_hd__decap_3 abstract view
.subckt sky130_fd_sc_hd__decap_3 VGND VNB VPB VPWR
.ends

* Black-box entry subcircuit for sky130_fd_sc_hd__o21a_4 abstract view
.subckt sky130_fd_sc_hd__o21a_4 A1 A2 B1 VGND VNB VPB VPWR X
.ends

* Black-box entry subcircuit for sky130_fd_sc_hd__a22oi_4 abstract view
.subckt sky130_fd_sc_hd__a22oi_4 A1 A2 B1 B2 VGND VNB VPB VPWR Y
.ends

* Black-box entry subcircuit for sky130_fd_sc_hd__a21oi_4 abstract view
.subckt sky130_fd_sc_hd__a21oi_4 A1 A2 B1 VGND VNB VPB VPWR Y
.ends

* Black-box entry subcircuit for sky130_fd_sc_hd__decap_12 abstract view
.subckt sky130_fd_sc_hd__decap_12 VGND VNB VPB VPWR
.ends

* Black-box entry subcircuit for sky130_fd_sc_hd__clkbuf_1 abstract view
.subckt sky130_fd_sc_hd__clkbuf_1 A VGND VNB VPB VPWR X
.ends

* Black-box entry subcircuit for sky130_fd_sc_hd__buf_2 abstract view
.subckt sky130_fd_sc_hd__buf_2 A VGND VNB VPB VPWR X
.ends

* Black-box entry subcircuit for sky130_fd_sc_hd__nand2_4 abstract view
.subckt sky130_fd_sc_hd__nand2_4 A B VGND VNB VPB VPWR Y
.ends

* Black-box entry subcircuit for sky130_fd_sc_hd__decap_6 abstract view
.subckt sky130_fd_sc_hd__decap_6 VGND VNB VPB VPWR
.ends

* Black-box entry subcircuit for sky130_fd_sc_hd__nor3_4 abstract view
.subckt sky130_fd_sc_hd__nor3_4 A B C VGND VNB VPB VPWR Y
.ends

* Black-box entry subcircuit for sky130_fd_sc_hd__clkbuf_16 abstract view
.subckt sky130_fd_sc_hd__clkbuf_16 A VGND VNB VPB VPWR X
.ends

* Black-box entry subcircuit for sky130_fd_sc_hd__tapvpwrvgnd_1 abstract view
.subckt sky130_fd_sc_hd__tapvpwrvgnd_1 VGND VPWR
.ends

* Black-box entry subcircuit for sky130_fd_sc_hd__o21ai_4 abstract view
.subckt sky130_fd_sc_hd__o21ai_4 A1 A2 B1 VGND VNB VPB VPWR Y
.ends

* Black-box entry subcircuit for sky130_fd_sc_hd__nor2_4 abstract view
.subckt sky130_fd_sc_hd__nor2_4 A B VGND VNB VPB VPWR Y
.ends

* Black-box entry subcircuit for sky130_fd_sc_hd__and4_4 abstract view
.subckt sky130_fd_sc_hd__and4_4 A B C D VGND VNB VPB VPWR X
.ends

* Black-box entry subcircuit for sky130_fd_sc_hd__xnor2_4 abstract view
.subckt sky130_fd_sc_hd__xnor2_4 A B VGND VNB VPB VPWR Y
.ends

* Black-box entry subcircuit for sky130_fd_sc_hd__o32ai_4 abstract view
.subckt sky130_fd_sc_hd__o32ai_4 A1 A2 A3 B1 B2 VGND VNB VPB VPWR Y
.ends

* Black-box entry subcircuit for sky130_fd_sc_hd__and2_4 abstract view
.subckt sky130_fd_sc_hd__and2_4 A B VGND VNB VPB VPWR X
.ends

* Black-box entry subcircuit for sky130_fd_sc_hd__a41oi_4 abstract view
.subckt sky130_fd_sc_hd__a41oi_4 A1 A2 A3 A4 B1 VGND VNB VPB VPWR Y
.ends

* Black-box entry subcircuit for sky130_fd_sc_hd__xor2_4 abstract view
.subckt sky130_fd_sc_hd__xor2_4 A B VGND VNB VPB VPWR X
.ends

* Black-box entry subcircuit for sky130_fd_sc_hd__a2bb2oi_4 abstract view
.subckt sky130_fd_sc_hd__a2bb2oi_4 A1_N A2_N B1 B2 VGND VNB VPB VPWR Y
.ends

* Black-box entry subcircuit for sky130_fd_sc_hd__a211o_4 abstract view
.subckt sky130_fd_sc_hd__a211o_4 A1 A2 B1 C1 VGND VNB VPB VPWR X
.ends

* Black-box entry subcircuit for sky130_fd_sc_hd__a41o_4 abstract view
.subckt sky130_fd_sc_hd__a41o_4 A1 A2 A3 A4 B1 VGND VNB VPB VPWR X
.ends

* Black-box entry subcircuit for sky130_fd_sc_hd__or2_4 abstract view
.subckt sky130_fd_sc_hd__or2_4 A B VGND VNB VPB VPWR X
.ends

* Black-box entry subcircuit for sky130_fd_sc_hd__nand3_4 abstract view
.subckt sky130_fd_sc_hd__nand3_4 A B C VGND VNB VPB VPWR Y
.ends

* Black-box entry subcircuit for sky130_fd_sc_hd__nand4_4 abstract view
.subckt sky130_fd_sc_hd__nand4_4 A B C D VGND VNB VPB VPWR Y
.ends

* Black-box entry subcircuit for sky130_fd_sc_hd__a21o_4 abstract view
.subckt sky130_fd_sc_hd__a21o_4 A1 A2 B1 VGND VNB VPB VPWR X
.ends

* Black-box entry subcircuit for sky130_fd_sc_hd__and3_4 abstract view
.subckt sky130_fd_sc_hd__and3_4 A B C VGND VNB VPB VPWR X
.ends

* Black-box entry subcircuit for sky130_fd_sc_hd__o41ai_4 abstract view
.subckt sky130_fd_sc_hd__o41ai_4 A1 A2 A3 A4 B1 VGND VNB VPB VPWR Y
.ends

* Black-box entry subcircuit for sky130_fd_sc_hd__nor4_4 abstract view
.subckt sky130_fd_sc_hd__nor4_4 A B C D VGND VNB VPB VPWR Y
.ends

* Black-box entry subcircuit for sky130_fd_sc_hd__conb_1 abstract view
.subckt sky130_fd_sc_hd__conb_1 VGND VNB VPB VPWR HI LO
.ends

* Black-box entry subcircuit for sky130_fd_sc_hd__o41a_4 abstract view
.subckt sky130_fd_sc_hd__o41a_4 A1 A2 A3 A4 B1 VGND VNB VPB VPWR X
.ends

* Black-box entry subcircuit for sky130_fd_sc_hd__a2bb2o_4 abstract view
.subckt sky130_fd_sc_hd__a2bb2o_4 A1_N A2_N B1 B2 VGND VNB VPB VPWR X
.ends

* Black-box entry subcircuit for sky130_fd_sc_hd__a21boi_4 abstract view
.subckt sky130_fd_sc_hd__a21boi_4 A1 A2 B1_N VGND VNB VPB VPWR Y
.ends

* Black-box entry subcircuit for sky130_fd_sc_hd__a32o_4 abstract view
.subckt sky130_fd_sc_hd__a32o_4 A1 A2 A3 B1 B2 VGND VNB VPB VPWR X
.ends

* Black-box entry subcircuit for sky130_fd_sc_hd__o32a_4 abstract view
.subckt sky130_fd_sc_hd__o32a_4 A1 A2 A3 B1 B2 VGND VNB VPB VPWR X
.ends

* Black-box entry subcircuit for sky130_fd_sc_hd__or4_4 abstract view
.subckt sky130_fd_sc_hd__or4_4 A B C D VGND VNB VPB VPWR X
.ends

* Black-box entry subcircuit for sky130_fd_sc_hd__diode_2 abstract view
.subckt sky130_fd_sc_hd__diode_2 DIODE VGND VNB VPB VPWR
.ends

* Black-box entry subcircuit for sky130_fd_sc_hd__o22a_4 abstract view
.subckt sky130_fd_sc_hd__o22a_4 A1 A2 B1 B2 VGND VNB VPB VPWR X
.ends

* Black-box entry subcircuit for sky130_fd_sc_hd__a2111o_4 abstract view
.subckt sky130_fd_sc_hd__a2111o_4 A1 A2 B1 C1 D1 VGND VNB VPB VPWR X
.ends

.subckt decred_controller CLK_LED DATA_AVAILABLE DATA_FROM_HASH[0] DATA_FROM_HASH[1]
+ DATA_FROM_HASH[2] DATA_FROM_HASH[3] DATA_FROM_HASH[4] DATA_FROM_HASH[5] DATA_FROM_HASH[6]
+ DATA_FROM_HASH[7] DATA_TO_HASH[0] DATA_TO_HASH[1] DATA_TO_HASH[2] DATA_TO_HASH[3]
+ DATA_TO_HASH[4] DATA_TO_HASH[5] DATA_TO_HASH[6] DATA_TO_HASH[7] EXT_RESET_N_fromHost
+ EXT_RESET_N_toClient HASH_ADDR[0] HASH_ADDR[1] HASH_ADDR[2] HASH_ADDR[3] HASH_ADDR[4]
+ HASH_ADDR[5] HASH_EN HASH_LED ID_fromClient ID_toHost IRQ_OUT_fromClient IRQ_OUT_toHost
+ M1_CLK_IN M1_CLK_SELECT MACRO_RD_SELECT MACRO_WR_SELECT MISO_fromClient MISO_toHost
+ MOSI_fromHost MOSI_toClient PLL_INPUT S1_CLK_IN S1_CLK_SELECT SCLK_fromHost SCLK_toClient
+ SCSN_fromHost SCSN_toClient SPI_CLK_RESET_N THREAD_COUNT[0] THREAD_COUNT[1] THREAD_COUNT[2]
+ THREAD_COUNT[3] m1_clk_local one zero VPWR VGND
XFILLER_54_247 VGND VGND VPWR VPWR sky130_fd_sc_hd__fill_2
X_2106_ _2108_/CLK _2106_/D VGND VGND VPWR VPWR _1772_/A sky130_fd_sc_hd__dfxtp_4
X_2037_ _2029_/CLK _2037_/D VGND VGND VPWR VPWR _2037_/Q sky130_fd_sc_hd__dfxtp_4
XFILLER_10_317 VGND VGND VPWR VPWR sky130_fd_sc_hd__fill_2
XFILLER_26_63 VGND VGND VPWR VPWR sky130_fd_sc_hd__decap_4
XFILLER_26_30 VGND VGND VPWR VPWR sky130_fd_sc_hd__fill_1
XFILLER_5_310 VGND VGND VPWR VPWR sky130_fd_sc_hd__fill_1
XFILLER_47_8 VGND VGND VPWR VPWR sky130_fd_sc_hd__decap_4
XFILLER_5_398 VGND VGND VPWR VPWR sky130_fd_sc_hd__decap_8
X_1270_ _1209_/A VGND VGND VPWR VPWR _1270_/Y sky130_fd_sc_hd__inv_2
XFILLER_51_206 VGND VGND VPWR VPWR sky130_fd_sc_hd__decap_3
X_1606_ _1600_/C _1596_/B _1605_/Y VGND VGND VPWR VPWR _2184_/D sky130_fd_sc_hd__o21a_4
XFILLER_59_306 VGND VGND VPWR VPWR sky130_fd_sc_hd__fill_1
X_1399_ THREAD_COUNT[2] _1421_/A _1397_/Y _1398_/Y VGND VGND VPWR VPWR _1399_/Y sky130_fd_sc_hd__a22oi_4
X_1537_ _2198_/Q _1525_/X _1536_/X VGND VGND VPWR VPWR _2199_/D sky130_fd_sc_hd__o21a_4
X_1468_ _1464_/X _1467_/X _1175_/X VGND VGND VPWR VPWR _1468_/Y sky130_fd_sc_hd__a21oi_4
XFILLER_35_280 VGND VGND VPWR VPWR sky130_fd_sc_hd__decap_4
XFILLER_12_54 VGND VGND VPWR VPWR sky130_fd_sc_hd__decap_4
XFILLER_2_346 VGND VGND VPWR VPWR sky130_fd_sc_hd__decap_4
XFILLER_2_324 VGND VGND VPWR VPWR sky130_fd_sc_hd__fill_1
XFILLER_12_87 VGND VGND VPWR VPWR sky130_fd_sc_hd__decap_4
XFILLER_58_394 VGND VGND VPWR VPWR sky130_fd_sc_hd__decap_3
XFILLER_26_280 VGND VGND VPWR VPWR sky130_fd_sc_hd__decap_4
XFILLER_49_350 VGND VGND VPWR VPWR sky130_fd_sc_hd__decap_12
Xclkbuf_1_0_0_m1_clk_local clkbuf_0_m1_clk_local/X VGND VGND VPWR VPWR clkbuf_2_1_0_m1_clk_local/A
+ sky130_fd_sc_hd__clkbuf_1
X_1322_ _1322_/A VGND VGND VPWR VPWR _1323_/C sky130_fd_sc_hd__buf_2
X_1253_ _1253_/A _1155_/X VGND VGND VPWR VPWR _1253_/Y sky130_fd_sc_hd__nand2_4
XFILLER_64_397 VGND VGND VPWR VPWR sky130_fd_sc_hd__decap_6
XFILLER_64_342 VGND VGND VPWR VPWR sky130_fd_sc_hd__decap_12
X_1184_ _1184_/A _1048_/D _1218_/A VGND VGND VPWR VPWR _1185_/A sky130_fd_sc_hd__nor3_4
XFILLER_32_250 VGND VGND VPWR VPWR sky130_fd_sc_hd__decap_4
XFILLER_20_401 VGND VGND VPWR VPWR sky130_fd_sc_hd__decap_6
XFILLER_55_331 VGND VGND VPWR VPWR sky130_fd_sc_hd__decap_4
XFILLER_55_386 VGND VGND VPWR VPWR sky130_fd_sc_hd__decap_12
XFILLER_55_353 VGND VGND VPWR VPWR sky130_fd_sc_hd__decap_4
XFILLER_23_53 VGND VGND VPWR VPWR sky130_fd_sc_hd__decap_8
XFILLER_23_97 VGND VGND VPWR VPWR sky130_fd_sc_hd__decap_4
XFILLER_2_198 VGND VGND VPWR VPWR sky130_fd_sc_hd__decap_4
XFILLER_2_154 VGND VGND VPWR VPWR sky130_fd_sc_hd__fill_2
XFILLER_61_323 VGND VGND VPWR VPWR sky130_fd_sc_hd__fill_2
XFILLER_46_375 VGND VGND VPWR VPWR sky130_fd_sc_hd__decap_3
XFILLER_46_331 VGND VGND VPWR VPWR sky130_fd_sc_hd__decap_4
XFILLER_61_367 VGND VGND VPWR VPWR sky130_fd_sc_hd__decap_8
X_1940_ _1765_/Y VGND VGND VPWR VPWR _1940_/Y sky130_fd_sc_hd__inv_2
X_1871_ _1864_/Y VGND VGND VPWR VPWR _1871_/X sky130_fd_sc_hd__buf_2
XFILLER_9_22 VGND VGND VPWR VPWR sky130_fd_sc_hd__decap_6
XFILLER_50_3 VGND VGND VPWR VPWR sky130_fd_sc_hd__decap_12
Xclkbuf_0_m1_clk_local m1_clk_local VGND VGND VPWR VPWR clkbuf_0_m1_clk_local/X sky130_fd_sc_hd__clkbuf_16
X_1236_ _1236_/A VGND VGND VPWR VPWR _1236_/Y sky130_fd_sc_hd__inv_2
X_1305_ _1917_/A VGND VGND VPWR VPWR _1675_/B sky130_fd_sc_hd__buf_2
XFILLER_52_312 VGND VGND VPWR VPWR sky130_fd_sc_hd__decap_4
X_1098_ _1098_/A VGND VGND VPWR VPWR _1098_/X sky130_fd_sc_hd__buf_2
X_1167_ _1164_/X _2076_/Q _1166_/X VGND VGND VPWR VPWR _1167_/Y sky130_fd_sc_hd__a21oi_4
XFILLER_20_297 VGND VGND VPWR VPWR sky130_fd_sc_hd__decap_6
XFILLER_43_312 VGND VGND VPWR VPWR sky130_fd_sc_hd__fill_1
XFILLER_28_386 VGND VGND VPWR VPWR sky130_fd_sc_hd__decap_8
XFILLER_28_320 VGND VGND VPWR VPWR sky130_fd_sc_hd__decap_6
XPHY_554 VGND VPWR sky130_fd_sc_hd__tapvpwrvgnd_1
XPHY_543 VGND VPWR sky130_fd_sc_hd__tapvpwrvgnd_1
XPHY_532 VGND VPWR sky130_fd_sc_hd__tapvpwrvgnd_1
XPHY_521 VGND VPWR sky130_fd_sc_hd__tapvpwrvgnd_1
XPHY_510 VGND VPWR sky130_fd_sc_hd__tapvpwrvgnd_1
XFILLER_34_30 VGND VGND VPWR VPWR sky130_fd_sc_hd__fill_1
XFILLER_7_257 VGND VGND VPWR VPWR sky130_fd_sc_hd__decap_4
Xclkbuf_3_3_0_m1_clk_local clkbuf_3_3_0_m1_clk_local/A VGND VGND VPWR VPWR _2124_/CLK
+ sky130_fd_sc_hd__clkbuf_1
X_2070_ _2213_/CLK _2070_/D VGND VGND VPWR VPWR _2070_/Q sky130_fd_sc_hd__dfxtp_4
XFILLER_53_109 VGND VGND VPWR VPWR sky130_fd_sc_hd__decap_4
X_1021_ _1024_/A _0996_/X _1020_/X VGND VGND VPWR VPWR _1021_/Y sky130_fd_sc_hd__o21ai_4
XFILLER_19_364 VGND VGND VPWR VPWR sky130_fd_sc_hd__fill_2
X_1785_ _2124_/Q _1813_/A VGND VGND VPWR VPWR _1785_/Y sky130_fd_sc_hd__nand2_4
X_1854_ _1371_/X _1774_/D VGND VGND VPWR VPWR _1854_/Y sky130_fd_sc_hd__nor2_4
X_1923_ _1902_/Y _1916_/X _1922_/Y VGND VGND VPWR VPWR _1923_/Y sky130_fd_sc_hd__o21ai_4
X_1219_ _1201_/B _1219_/B VGND VGND VPWR VPWR _1344_/A sky130_fd_sc_hd__nor2_4
X_2199_ _2194_/CLK _2199_/D VGND VGND VPWR VPWR _2199_/Q sky130_fd_sc_hd__dfxtp_4
XFILLER_25_345 VGND VGND VPWR VPWR sky130_fd_sc_hd__fill_1
XFILLER_29_30 VGND VGND VPWR VPWR sky130_fd_sc_hd__fill_1
XFILLER_45_62 VGND VGND VPWR VPWR sky130_fd_sc_hd__fill_2
XFILLER_31_304 VGND VGND VPWR VPWR sky130_fd_sc_hd__fill_1
XFILLER_28_183 VGND VGND VPWR VPWR sky130_fd_sc_hd__decap_4
XPHY_395 VGND VPWR sky130_fd_sc_hd__tapvpwrvgnd_1
XPHY_384 VGND VPWR sky130_fd_sc_hd__tapvpwrvgnd_1
XPHY_373 VGND VPWR sky130_fd_sc_hd__tapvpwrvgnd_1
XPHY_362 VGND VPWR sky130_fd_sc_hd__tapvpwrvgnd_1
XPHY_351 VGND VPWR sky130_fd_sc_hd__tapvpwrvgnd_1
XPHY_340 VGND VPWR sky130_fd_sc_hd__tapvpwrvgnd_1
X_1570_ _1570_/A SPI_CLK_RESET_N _1570_/C _1569_/X VGND VGND VPWR VPWR _2189_/D sky130_fd_sc_hd__and4_4
XFILLER_6_56 VGND VGND VPWR VPWR sky130_fd_sc_hd__decap_4
X_2122_ _2025_/CLK _1818_/Y VGND VGND VPWR VPWR _2122_/Q sky130_fd_sc_hd__dfxtp_4
X_2053_ _2044_/CLK DATA_FROM_HASH[0] VGND VGND VPWR VPWR _2053_/Q sky130_fd_sc_hd__dfxtp_4
XFILLER_13_3 VGND VGND VPWR VPWR sky130_fd_sc_hd__decap_12
X_1004_ _1004_/A VGND VGND VPWR VPWR _1004_/X sky130_fd_sc_hd__buf_2
XFILLER_22_337 VGND VGND VPWR VPWR sky130_fd_sc_hd__decap_8
X_1837_ _2115_/Q _1836_/Y VGND VGND VPWR VPWR _1837_/Y sky130_fd_sc_hd__xnor2_4
XFILLER_30_370 VGND VGND VPWR VPWR sky130_fd_sc_hd__decap_4
X_1768_ _1746_/A _1765_/Y _1767_/Y VGND VGND VPWR VPWR _2133_/D sky130_fd_sc_hd__o21ai_4
X_1906_ _1904_/Y _1473_/B _1905_/X _1407_/Y _1889_/X VGND VGND VPWR VPWR _2086_/D
+ sky130_fd_sc_hd__o32ai_4
XFILLER_57_245 VGND VGND VPWR VPWR sky130_fd_sc_hd__decap_8
X_1699_ _1697_/A _2149_/Q VGND VGND VPWR VPWR _1699_/X sky130_fd_sc_hd__and2_4
XFILLER_57_278 VGND VGND VPWR VPWR sky130_fd_sc_hd__decap_12
XFILLER_15_10 VGND VGND VPWR VPWR sky130_fd_sc_hd__decap_8
XFILLER_63_204 VGND VGND VPWR VPWR sky130_fd_sc_hd__fill_1
XFILLER_48_212 VGND VGND VPWR VPWR sky130_fd_sc_hd__fill_2
XPHY_170 VGND VPWR sky130_fd_sc_hd__tapvpwrvgnd_1
X_1622_ _1621_/C _1608_/Y _1587_/A _1587_/D _1102_/A VGND VGND VPWR VPWR _1622_/Y
+ sky130_fd_sc_hd__a41oi_4
XPHY_181 VGND VPWR sky130_fd_sc_hd__tapvpwrvgnd_1
XPHY_192 VGND VPWR sky130_fd_sc_hd__tapvpwrvgnd_1
XFILLER_12_392 VGND VGND VPWR VPWR sky130_fd_sc_hd__decap_4
X_1484_ _1059_/B _1484_/B VGND VGND VPWR VPWR _1484_/X sky130_fd_sc_hd__xor2_4
X_1553_ _2158_/Q VGND VGND VPWR VPWR _1553_/Y sky130_fd_sc_hd__inv_2
XFILLER_54_215 VGND VGND VPWR VPWR sky130_fd_sc_hd__decap_6
X_2105_ _2115_/CLK _1855_/X VGND VGND VPWR VPWR _2105_/Q sky130_fd_sc_hd__dfxtp_4
XFILLER_39_245 VGND VGND VPWR VPWR sky130_fd_sc_hd__decap_3
X_2036_ _2171_/CLK _2036_/D VGND VGND VPWR VPWR HASH_ADDR[5] sky130_fd_sc_hd__dfxtp_4
XFILLER_62_281 VGND VGND VPWR VPWR sky130_fd_sc_hd__decap_6
XFILLER_13_101 VGND VGND VPWR VPWR sky130_fd_sc_hd__decap_4
XFILLER_13_123 VGND VGND VPWR VPWR sky130_fd_sc_hd__fill_1
XFILLER_42_41 VGND VGND VPWR VPWR sky130_fd_sc_hd__decap_4
XFILLER_42_30 VGND VGND VPWR VPWR sky130_fd_sc_hd__fill_1
X_1605_ _1574_/A _1604_/Y _1600_/B _1600_/C _1102_/A VGND VGND VPWR VPWR _1605_/Y
+ sky130_fd_sc_hd__a41oi_4
X_1536_ _2199_/Q _1526_/X _1535_/X VGND VGND VPWR VPWR _1536_/X sky130_fd_sc_hd__o21a_4
X_1398_ _1773_/B _1397_/B _1344_/A _1708_/A VGND VGND VPWR VPWR _1398_/Y sky130_fd_sc_hd__a2bb2oi_4
XFILLER_27_215 VGND VGND VPWR VPWR sky130_fd_sc_hd__decap_4
X_1467_ _2001_/D _1355_/X _1172_/X _1466_/Y VGND VGND VPWR VPWR _1467_/X sky130_fd_sc_hd__a211o_4
X_2019_ _2171_/CLK _2019_/D VGND VGND VPWR VPWR MACRO_WR_SELECT sky130_fd_sc_hd__dfxtp_4
XFILLER_6_119 VGND VGND VPWR VPWR sky130_fd_sc_hd__decap_4
XFILLER_12_22 VGND VGND VPWR VPWR sky130_fd_sc_hd__decap_8
XFILLER_37_52 VGND VGND VPWR VPWR sky130_fd_sc_hd__decap_8
XFILLER_53_62 VGND VGND VPWR VPWR sky130_fd_sc_hd__decap_6
XFILLER_41_295 VGND VGND VPWR VPWR sky130_fd_sc_hd__decap_4
XFILLER_5_196 VGND VGND VPWR VPWR sky130_fd_sc_hd__decap_3
XFILLER_49_362 VGND VGND VPWR VPWR sky130_fd_sc_hd__decap_4
X_1252_ _1252_/A _1251_/Y VGND VGND VPWR VPWR _2231_/D sky130_fd_sc_hd__nand2_4
X_1321_ _1971_/A _1971_/B _1064_/Y _1066_/D _1001_/A VGND VGND VPWR VPWR _1322_/A
+ sky130_fd_sc_hd__a41o_4
XFILLER_64_354 VGND VGND VPWR VPWR sky130_fd_sc_hd__decap_12
X_1183_ _1047_/A VGND VGND VPWR VPWR _1218_/A sky130_fd_sc_hd__inv_2
XFILLER_17_292 VGND VGND VPWR VPWR sky130_fd_sc_hd__decap_12
Xclkbuf_3_4_0_addressalyzerBlock.SPI_CLK clkbuf_3_5_0_addressalyzerBlock.SPI_CLK/A
+ VGND VGND VPWR VPWR clkbuf_4_9_0_addressalyzerBlock.SPI_CLK/A sky130_fd_sc_hd__clkbuf_1
X_1519_ _2215_/Q _1133_/X _1510_/X VGND VGND VPWR VPWR _1519_/X sky130_fd_sc_hd__o21a_4
XFILLER_55_365 VGND VGND VPWR VPWR sky130_fd_sc_hd__fill_1
XFILLER_55_398 VGND VGND VPWR VPWR sky130_fd_sc_hd__decap_8
XFILLER_48_51 VGND VGND VPWR VPWR sky130_fd_sc_hd__decap_4
XFILLER_64_72 VGND VGND VPWR VPWR sky130_fd_sc_hd__decap_4
XFILLER_64_61 VGND VGND VPWR VPWR sky130_fd_sc_hd__fill_1
XFILLER_46_387 VGND VGND VPWR VPWR sky130_fd_sc_hd__decap_8
X_1870_ _1930_/A _1865_/X _1869_/Y VGND VGND VPWR VPWR _2099_/D sky130_fd_sc_hd__o21ai_4
XFILLER_43_3 VGND VGND VPWR VPWR sky130_fd_sc_hd__decap_6
XFILLER_64_151 VGND VGND VPWR VPWR sky130_fd_sc_hd__decap_4
X_1304_ _1005_/Y VGND VGND VPWR VPWR _1917_/A sky130_fd_sc_hd__buf_2
X_1166_ _1166_/A VGND VGND VPWR VPWR _1166_/X sky130_fd_sc_hd__buf_2
X_1235_ _1232_/Y _1233_/X _1234_/Y VGND VGND VPWR VPWR _1235_/Y sky130_fd_sc_hd__o21ai_4
XFILLER_64_162 VGND VGND VPWR VPWR sky130_fd_sc_hd__fill_1
X_1097_ _1097_/A VGND VGND VPWR VPWR _1097_/Y sky130_fd_sc_hd__inv_2
XFILLER_20_210 VGND VGND VPWR VPWR sky130_fd_sc_hd__decap_4
X_1999_ _2182_/CLK _1383_/A VGND VGND VPWR VPWR _1999_/Q sky130_fd_sc_hd__dfxtp_4
XFILLER_20_265 VGND VGND VPWR VPWR sky130_fd_sc_hd__decap_8
XFILLER_20_276 VGND VGND VPWR VPWR sky130_fd_sc_hd__fill_2
XPHY_500 VGND VPWR sky130_fd_sc_hd__tapvpwrvgnd_1
XFILLER_55_184 VGND VGND VPWR VPWR sky130_fd_sc_hd__decap_3
XFILLER_28_398 VGND VGND VPWR VPWR sky130_fd_sc_hd__decap_8
XFILLER_18_54 VGND VGND VPWR VPWR sky130_fd_sc_hd__decap_4
XPHY_555 VGND VPWR sky130_fd_sc_hd__tapvpwrvgnd_1
XPHY_544 VGND VPWR sky130_fd_sc_hd__tapvpwrvgnd_1
XPHY_533 VGND VPWR sky130_fd_sc_hd__tapvpwrvgnd_1
XPHY_522 VGND VPWR sky130_fd_sc_hd__tapvpwrvgnd_1
XPHY_511 VGND VPWR sky130_fd_sc_hd__tapvpwrvgnd_1
XFILLER_34_97 VGND VGND VPWR VPWR sky130_fd_sc_hd__fill_1
X_1020_ _1020_/A _1020_/B VGND VGND VPWR VPWR _1020_/X sky130_fd_sc_hd__or2_4
XFILLER_19_343 VGND VGND VPWR VPWR sky130_fd_sc_hd__decap_4
XFILLER_46_195 VGND VGND VPWR VPWR sky130_fd_sc_hd__decap_4
XFILLER_34_368 VGND VGND VPWR VPWR sky130_fd_sc_hd__decap_4
XFILLER_34_302 VGND VGND VPWR VPWR sky130_fd_sc_hd__decap_4
X_1922_ _1915_/Y _1917_/X _1857_/A VGND VGND VPWR VPWR _1922_/Y sky130_fd_sc_hd__nand3_4
X_1784_ _1783_/Y VGND VGND VPWR VPWR _1815_/C sky130_fd_sc_hd__inv_2
X_1853_ _1772_/A _1853_/B VGND VGND VPWR VPWR _2106_/D sky130_fd_sc_hd__xor2_4
XFILLER_6_280 VGND VGND VPWR VPWR sky130_fd_sc_hd__decap_8
XFILLER_29_118 VGND VGND VPWR VPWR sky130_fd_sc_hd__decap_4
X_1149_ _1149_/A _1149_/B VGND VGND VPWR VPWR _1182_/B sky130_fd_sc_hd__nor2_4
XFILLER_37_184 VGND VGND VPWR VPWR sky130_fd_sc_hd__fill_2
X_1218_ _1218_/A VGND VGND VPWR VPWR _1219_/B sky130_fd_sc_hd__buf_2
X_2198_ _2194_/CLK _2198_/D VGND VGND VPWR VPWR _2198_/Q sky130_fd_sc_hd__dfxtp_4
XFILLER_52_154 VGND VGND VPWR VPWR sky130_fd_sc_hd__decap_6
XFILLER_20_88 VGND VGND VPWR VPWR sky130_fd_sc_hd__decap_4
XFILLER_43_121 VGND VGND VPWR VPWR sky130_fd_sc_hd__fill_1
XPHY_352 VGND VPWR sky130_fd_sc_hd__tapvpwrvgnd_1
XPHY_341 VGND VPWR sky130_fd_sc_hd__tapvpwrvgnd_1
XPHY_330 VGND VPWR sky130_fd_sc_hd__tapvpwrvgnd_1
XFILLER_16_335 VGND VGND VPWR VPWR sky130_fd_sc_hd__fill_1
XFILLER_61_62 VGND VGND VPWR VPWR sky130_fd_sc_hd__fill_2
XPHY_396 VGND VPWR sky130_fd_sc_hd__tapvpwrvgnd_1
XPHY_385 VGND VPWR sky130_fd_sc_hd__tapvpwrvgnd_1
XPHY_374 VGND VPWR sky130_fd_sc_hd__tapvpwrvgnd_1
XPHY_363 VGND VPWR sky130_fd_sc_hd__tapvpwrvgnd_1
X_2052_ _2052_/CLK _2052_/D VGND VGND VPWR VPWR _1180_/A sky130_fd_sc_hd__dfxtp_4
X_2121_ _2025_/CLK _1820_/X VGND VGND VPWR VPWR _2121_/Q sky130_fd_sc_hd__dfxtp_4
X_1003_ _1003_/A VGND VGND VPWR VPWR _1003_/X sky130_fd_sc_hd__buf_2
XFILLER_19_184 VGND VGND VPWR VPWR sky130_fd_sc_hd__decap_4
XFILLER_34_154 VGND VGND VPWR VPWR sky130_fd_sc_hd__decap_4
X_1905_ _1887_/Y VGND VGND VPWR VPWR _1905_/X sky130_fd_sc_hd__buf_2
X_1836_ _1847_/B _1776_/Y _1832_/C _1832_/D VGND VGND VPWR VPWR _1836_/Y sky130_fd_sc_hd__nand4_4
XFILLER_30_393 VGND VGND VPWR VPWR sky130_fd_sc_hd__decap_4
X_1767_ _1738_/Y _1767_/B _1767_/C VGND VGND VPWR VPWR _1767_/Y sky130_fd_sc_hd__nand3_4
X_1698_ _1697_/A SCLK_fromHost VGND VGND VPWR VPWR _1698_/X sky130_fd_sc_hd__and2_4
XFILLER_57_235 VGND VGND VPWR VPWR sky130_fd_sc_hd__decap_8
XFILLER_40_179 VGND VGND VPWR VPWR sky130_fd_sc_hd__decap_4
XFILLER_31_43 VGND VGND VPWR VPWR sky130_fd_sc_hd__fill_1
XFILLER_48_268 VGND VGND VPWR VPWR sky130_fd_sc_hd__decap_6
XPHY_182 VGND VPWR sky130_fd_sc_hd__tapvpwrvgnd_1
XPHY_171 VGND VPWR sky130_fd_sc_hd__tapvpwrvgnd_1
XPHY_160 VGND VPWR sky130_fd_sc_hd__tapvpwrvgnd_1
XPHY_193 VGND VPWR sky130_fd_sc_hd__tapvpwrvgnd_1
XFILLER_16_154 VGND VGND VPWR VPWR sky130_fd_sc_hd__decap_8
X_1621_ _1619_/Y _1621_/B _1621_/C _1587_/D VGND VGND VPWR VPWR _1621_/X sky130_fd_sc_hd__and4_4
X_1552_ _1551_/X VGND VGND VPWR VPWR _2194_/D sky130_fd_sc_hd__inv_2
X_2104_ _2115_/CLK _1856_/X VGND VGND VPWR VPWR _1370_/A sky130_fd_sc_hd__dfxtp_4
XFILLER_39_213 VGND VGND VPWR VPWR sky130_fd_sc_hd__decap_6
X_1483_ _1105_/B _1483_/B VGND VGND VPWR VPWR _1483_/X sky130_fd_sc_hd__xor2_4
X_2035_ _2025_/CLK _2041_/Q VGND VGND VPWR VPWR HASH_ADDR[4] sky130_fd_sc_hd__dfxtp_4
X_1819_ _1827_/B _1815_/B VGND VGND VPWR VPWR _1819_/Y sky130_fd_sc_hd__nand2_4
XFILLER_45_205 VGND VGND VPWR VPWR sky130_fd_sc_hd__decap_4
XFILLER_53_282 VGND VGND VPWR VPWR sky130_fd_sc_hd__decap_4
XFILLER_26_87 VGND VGND VPWR VPWR sky130_fd_sc_hd__decap_4
XFILLER_13_168 VGND VGND VPWR VPWR sky130_fd_sc_hd__fill_2
XFILLER_13_179 VGND VGND VPWR VPWR sky130_fd_sc_hd__decap_4
XFILLER_44_271 VGND VGND VPWR VPWR sky130_fd_sc_hd__decap_4
XFILLER_8_172 VGND VGND VPWR VPWR sky130_fd_sc_hd__fill_1
X_1604_ _1604_/A VGND VGND VPWR VPWR _1604_/Y sky130_fd_sc_hd__inv_2
X_1535_ _1625_/A VGND VGND VPWR VPWR _1535_/X sky130_fd_sc_hd__buf_2
X_1397_ _1397_/A _1397_/B _1397_/C VGND VGND VPWR VPWR _1397_/Y sky130_fd_sc_hd__nand3_4
X_1466_ _1412_/A _1466_/B VGND VGND VPWR VPWR _1466_/Y sky130_fd_sc_hd__nor2_4
X_2018_ _2124_/CLK _2017_/Q VGND VGND VPWR VPWR HASH_EN sky130_fd_sc_hd__dfxtp_4
XFILLER_42_219 VGND VGND VPWR VPWR sky130_fd_sc_hd__decap_4
XFILLER_2_304 VGND VGND VPWR VPWR sky130_fd_sc_hd__decap_4
XFILLER_18_227 VGND VGND VPWR VPWR sky130_fd_sc_hd__decap_4
XFILLER_26_293 VGND VGND VPWR VPWR sky130_fd_sc_hd__decap_4
X_1320_ _1449_/B VGND VGND VPWR VPWR _1971_/B sky130_fd_sc_hd__inv_2
XFILLER_64_311 VGND VGND VPWR VPWR sky130_fd_sc_hd__decap_12
X_1251_ _1274_/A _2231_/Q VGND VGND VPWR VPWR _1251_/Y sky130_fd_sc_hd__nand2_4
X_1182_ _1148_/A _1182_/B _1182_/C VGND VGND VPWR VPWR _1189_/A sky130_fd_sc_hd__nand3_4
XFILLER_64_366 VGND VGND VPWR VPWR sky130_fd_sc_hd__decap_6
XFILLER_24_219 VGND VGND VPWR VPWR sky130_fd_sc_hd__fill_1
X_1449_ _2010_/Q _1449_/B _1449_/C VGND VGND VPWR VPWR _1449_/Y sky130_fd_sc_hd__nor3_4
X_1518_ _1501_/Y _2198_/Q _1517_/X VGND VGND VPWR VPWR _1518_/X sky130_fd_sc_hd__o21a_4
XFILLER_23_22 VGND VGND VPWR VPWR sky130_fd_sc_hd__decap_4
XFILLER_3_3 VGND VGND VPWR VPWR sky130_fd_sc_hd__decap_12
XFILLER_48_74 VGND VGND VPWR VPWR sky130_fd_sc_hd__decap_4
XFILLER_48_30 VGND VGND VPWR VPWR sky130_fd_sc_hd__fill_1
XFILLER_2_178 VGND VGND VPWR VPWR sky130_fd_sc_hd__fill_1
XFILLER_0_15 VGND VGND VPWR VPWR sky130_fd_sc_hd__decap_12
XFILLER_61_347 VGND VGND VPWR VPWR sky130_fd_sc_hd__decap_4
XFILLER_46_344 VGND VGND VPWR VPWR sky130_fd_sc_hd__decap_4
XFILLER_0_59 VGND VGND VPWR VPWR sky130_fd_sc_hd__decap_3
X_1303_ _1112_/A _1279_/Y _1291_/A _1302_/Y VGND VGND VPWR VPWR _1307_/A sky130_fd_sc_hd__a211o_4
XFILLER_36_3 VGND VGND VPWR VPWR sky130_fd_sc_hd__decap_4
XFILLER_49_171 VGND VGND VPWR VPWR sky130_fd_sc_hd__decap_4
XFILLER_37_300 VGND VGND VPWR VPWR sky130_fd_sc_hd__fill_2
X_1096_ _1894_/A _1078_/X _1079_/X VGND VGND VPWR VPWR _1096_/Y sky130_fd_sc_hd__a21oi_4
X_1234_ _1164_/X _2075_/Q _1166_/A VGND VGND VPWR VPWR _1234_/Y sky130_fd_sc_hd__a21oi_4
X_1165_ _2143_/Q VGND VGND VPWR VPWR _1166_/A sky130_fd_sc_hd__inv_2
XFILLER_20_244 VGND VGND VPWR VPWR sky130_fd_sc_hd__decap_4
X_1998_ _2189_/CLK _1998_/D VGND VGND VPWR VPWR _1998_/Q sky130_fd_sc_hd__dfxtp_4
XFILLER_18_22 VGND VGND VPWR VPWR sky130_fd_sc_hd__decap_8
XPHY_534 VGND VPWR sky130_fd_sc_hd__tapvpwrvgnd_1
XPHY_523 VGND VPWR sky130_fd_sc_hd__tapvpwrvgnd_1
XPHY_512 VGND VPWR sky130_fd_sc_hd__tapvpwrvgnd_1
XPHY_501 VGND VPWR sky130_fd_sc_hd__tapvpwrvgnd_1
XFILLER_43_303 VGND VGND VPWR VPWR sky130_fd_sc_hd__fill_2
XFILLER_34_54 VGND VGND VPWR VPWR sky130_fd_sc_hd__fill_1
XFILLER_34_32 VGND VGND VPWR VPWR sky130_fd_sc_hd__decap_4
XPHY_556 VGND VPWR sky130_fd_sc_hd__tapvpwrvgnd_1
XPHY_545 VGND VPWR sky130_fd_sc_hd__tapvpwrvgnd_1
XFILLER_11_233 VGND VGND VPWR VPWR sky130_fd_sc_hd__decap_8
XFILLER_22_9 VGND VGND VPWR VPWR sky130_fd_sc_hd__decap_4
X_1852_ _1477_/Y _1371_/X _1774_/D VGND VGND VPWR VPWR _1853_/B sky130_fd_sc_hd__nor3_4
X_1921_ _1316_/Y _1916_/X _1920_/Y VGND VGND VPWR VPWR _2080_/D sky130_fd_sc_hd__o21ai_4
X_1783_ _2122_/Q _2121_/Q VGND VGND VPWR VPWR _1783_/Y sky130_fd_sc_hd__nand2_4
XFILLER_57_406 VGND VGND VPWR VPWR sky130_fd_sc_hd__fill_1
XFILLER_52_133 VGND VGND VPWR VPWR sky130_fd_sc_hd__decap_12
X_1217_ _1217_/A VGND VGND VPWR VPWR _1217_/X sky130_fd_sc_hd__buf_2
X_1148_ _1148_/A VGND VGND VPWR VPWR _1344_/C sky130_fd_sc_hd__buf_2
X_1079_ _1067_/Y VGND VGND VPWR VPWR _1079_/X sky130_fd_sc_hd__buf_2
XFILLER_25_303 VGND VGND VPWR VPWR sky130_fd_sc_hd__fill_2
X_2197_ _2194_/CLK _1541_/X VGND VGND VPWR VPWR _2197_/Q sky130_fd_sc_hd__dfxtp_4
XFILLER_4_218 VGND VGND VPWR VPWR sky130_fd_sc_hd__decap_4
XFILLER_20_78 VGND VGND VPWR VPWR sky130_fd_sc_hd__fill_1
XFILLER_48_406 VGND VGND VPWR VPWR sky130_fd_sc_hd__fill_1
XFILLER_29_65 VGND VGND VPWR VPWR sky130_fd_sc_hd__decap_6
XPHY_386 VGND VPWR sky130_fd_sc_hd__tapvpwrvgnd_1
XPHY_375 VGND VPWR sky130_fd_sc_hd__tapvpwrvgnd_1
XPHY_364 VGND VPWR sky130_fd_sc_hd__tapvpwrvgnd_1
XPHY_353 VGND VPWR sky130_fd_sc_hd__tapvpwrvgnd_1
XPHY_342 VGND VPWR sky130_fd_sc_hd__tapvpwrvgnd_1
XPHY_331 VGND VPWR sky130_fd_sc_hd__tapvpwrvgnd_1
XPHY_320 VGND VPWR sky130_fd_sc_hd__tapvpwrvgnd_1
XPHY_397 VGND VPWR sky130_fd_sc_hd__tapvpwrvgnd_1
XFILLER_6_36 VGND VGND VPWR VPWR sky130_fd_sc_hd__fill_1
X_2120_ _2025_/CLK _1822_/X VGND VGND VPWR VPWR _2120_/Q sky130_fd_sc_hd__dfxtp_4
XFILLER_39_406 VGND VGND VPWR VPWR sky130_fd_sc_hd__fill_1
X_2051_ _2051_/CLK _2059_/Q VGND VGND VPWR VPWR _1241_/A sky130_fd_sc_hd__dfxtp_4
X_1002_ _1004_/A VGND VGND VPWR VPWR _1003_/A sky130_fd_sc_hd__buf_2
XFILLER_34_111 VGND VGND VPWR VPWR sky130_fd_sc_hd__decap_4
X_1835_ _1835_/A VGND VGND VPWR VPWR _1847_/B sky130_fd_sc_hd__buf_2
X_1904_ _1904_/A VGND VGND VPWR VPWR _1904_/Y sky130_fd_sc_hd__inv_2
X_1766_ _1008_/A VGND VGND VPWR VPWR _1767_/B sky130_fd_sc_hd__buf_2
X_1697_ _1697_/A _2151_/Q VGND VGND VPWR VPWR _2152_/D sky130_fd_sc_hd__and2_4
XFILLER_40_147 VGND VGND VPWR VPWR sky130_fd_sc_hd__decap_6
XFILLER_31_77 VGND VGND VPWR VPWR sky130_fd_sc_hd__decap_4
XFILLER_48_225 VGND VGND VPWR VPWR sky130_fd_sc_hd__fill_1
XFILLER_0_276 VGND VGND VPWR VPWR sky130_fd_sc_hd__decap_3
XFILLER_48_247 VGND VGND VPWR VPWR sky130_fd_sc_hd__decap_4
XFILLER_31_136 VGND VGND VPWR VPWR sky130_fd_sc_hd__decap_6
XPHY_183 VGND VPWR sky130_fd_sc_hd__tapvpwrvgnd_1
XPHY_172 VGND VPWR sky130_fd_sc_hd__tapvpwrvgnd_1
XPHY_161 VGND VPWR sky130_fd_sc_hd__tapvpwrvgnd_1
XPHY_150 VGND VPWR sky130_fd_sc_hd__tapvpwrvgnd_1
XFILLER_8_321 VGND VGND VPWR VPWR sky130_fd_sc_hd__decap_4
XPHY_194 VGND VPWR sky130_fd_sc_hd__tapvpwrvgnd_1
X_1620_ _1576_/A VGND VGND VPWR VPWR _1621_/B sky130_fd_sc_hd__buf_2
X_1482_ _1482_/A _1126_/B VGND VGND VPWR VPWR _1482_/Y sky130_fd_sc_hd__nor2_4
XFILLER_8_398 VGND VGND VPWR VPWR sky130_fd_sc_hd__decap_8
X_1551_ _1455_/C _1549_/Y _1550_/Y VGND VGND VPWR VPWR _1551_/X sky130_fd_sc_hd__a21o_4
X_2103_ _2108_/CLK _2103_/D VGND VGND VPWR VPWR _1773_/B sky130_fd_sc_hd__dfxtp_4
XFILLER_39_236 VGND VGND VPWR VPWR sky130_fd_sc_hd__decap_8
XFILLER_62_272 VGND VGND VPWR VPWR sky130_fd_sc_hd__decap_3
X_2034_ _2029_/CLK _2034_/D VGND VGND VPWR VPWR HASH_ADDR[3] sky130_fd_sc_hd__dfxtp_4
XFILLER_22_158 VGND VGND VPWR VPWR sky130_fd_sc_hd__decap_6
X_1818_ _2122_/Q _1817_/Y VGND VGND VPWR VPWR _1818_/Y sky130_fd_sc_hd__xnor2_4
XFILLER_10_309 VGND VGND VPWR VPWR sky130_fd_sc_hd__decap_8
X_1749_ _1738_/Y VGND VGND VPWR VPWR _1754_/A sky130_fd_sc_hd__buf_2
XFILLER_45_239 VGND VGND VPWR VPWR sky130_fd_sc_hd__decap_4
XFILLER_26_22 VGND VGND VPWR VPWR sky130_fd_sc_hd__decap_8
XFILLER_42_65 VGND VGND VPWR VPWR sky130_fd_sc_hd__decap_4
XFILLER_42_32 VGND VGND VPWR VPWR sky130_fd_sc_hd__decap_4
XFILLER_41_401 VGND VGND VPWR VPWR sky130_fd_sc_hd__decap_6
Xclkbuf_4_4_0_addressalyzerBlock.SPI_CLK clkbuf_4_5_0_addressalyzerBlock.SPI_CLK/A
+ VGND VGND VPWR VPWR _2051_/CLK sky130_fd_sc_hd__clkbuf_1
XFILLER_13_136 VGND VGND VPWR VPWR sky130_fd_sc_hd__decap_4
XFILLER_5_346 VGND VGND VPWR VPWR sky130_fd_sc_hd__decap_4
XFILLER_3_37 VGND VGND VPWR VPWR sky130_fd_sc_hd__decap_12
XFILLER_3_15 VGND VGND VPWR VPWR sky130_fd_sc_hd__decap_3
X_1603_ _2185_/Q _1601_/Y _1602_/Y VGND VGND VPWR VPWR _2185_/D sky130_fd_sc_hd__o21a_4
XFILLER_4_390 VGND VGND VPWR VPWR sky130_fd_sc_hd__decap_6
X_1534_ _2199_/Q _1525_/X _1533_/X VGND VGND VPWR VPWR _2200_/D sky130_fd_sc_hd__o21a_4
X_1465_ _2041_/D VGND VGND VPWR VPWR _1466_/B sky130_fd_sc_hd__inv_2