* NGSPICE file created from decred_controller.ext - technology: sky130A

* Black-box entry subcircuit for sky130_fd_sc_hd__dfxtp_4 abstract view
.subckt sky130_fd_sc_hd__dfxtp_4 CLK D VGND VNB VPB VPWR Q
.ends

* Black-box entry subcircuit for sky130_fd_sc_hd__decap_4 abstract view
.subckt sky130_fd_sc_hd__decap_4 VGND VNB VPB VPWR
.ends

* Black-box entry subcircuit for sky130_fd_sc_hd__fill_1 abstract view
.subckt sky130_fd_sc_hd__fill_1 VGND VNB VPB VPWR
.ends

* Black-box entry subcircuit for sky130_fd_sc_hd__decap_8 abstract view
.subckt sky130_fd_sc_hd__decap_8 VGND VNB VPB VPWR
.ends

* Black-box entry subcircuit for sky130_fd_sc_hd__decap_12 abstract view
.subckt sky130_fd_sc_hd__decap_12 VGND VNB VPB VPWR
.ends

* Black-box entry subcircuit for sky130_fd_sc_hd__decap_6 abstract view
.subckt sky130_fd_sc_hd__decap_6 VGND VNB VPB VPWR
.ends

* Black-box entry subcircuit for sky130_fd_sc_hd__nand3_4 abstract view
.subckt sky130_fd_sc_hd__nand3_4 A B C VGND VNB VPB VPWR Y
.ends

* Black-box entry subcircuit for sky130_fd_sc_hd__fill_2 abstract view
.subckt sky130_fd_sc_hd__fill_2 VGND VNB VPB VPWR
.ends

* Black-box entry subcircuit for sky130_fd_sc_hd__inv_2 abstract view
.subckt sky130_fd_sc_hd__inv_2 A VGND VNB VPB VPWR Y
.ends

* Black-box entry subcircuit for sky130_fd_sc_hd__buf_2 abstract view
.subckt sky130_fd_sc_hd__buf_2 A VGND VNB VPB VPWR X
.ends

* Black-box entry subcircuit for sky130_fd_sc_hd__or3_4 abstract view
.subckt sky130_fd_sc_hd__or3_4 A B C VGND VNB VPB VPWR X
.ends

* Black-box entry subcircuit for sky130_fd_sc_hd__a21oi_4 abstract view
.subckt sky130_fd_sc_hd__a21oi_4 A1 A2 B1 VGND VNB VPB VPWR Y
.ends

* Black-box entry subcircuit for sky130_fd_sc_hd__decap_3 abstract view
.subckt sky130_fd_sc_hd__decap_3 VGND VNB VPB VPWR
.ends

* Black-box entry subcircuit for sky130_fd_sc_hd__a21o_4 abstract view
.subckt sky130_fd_sc_hd__a21o_4 A1 A2 B1 VGND VNB VPB VPWR X
.ends

* Black-box entry subcircuit for sky130_fd_sc_hd__clkbuf_1 abstract view
.subckt sky130_fd_sc_hd__clkbuf_1 A VGND VNB VPB VPWR X
.ends

* Black-box entry subcircuit for sky130_fd_sc_hd__diode_2 abstract view
.subckt sky130_fd_sc_hd__diode_2 DIODE VGND VNB VPB VPWR
.ends

* Black-box entry subcircuit for sky130_fd_sc_hd__xor2_4 abstract view
.subckt sky130_fd_sc_hd__xor2_4 A B VGND VNB VPB VPWR X
.ends

* Black-box entry subcircuit for sky130_fd_sc_hd__clkbuf_16 abstract view
.subckt sky130_fd_sc_hd__clkbuf_16 A VGND VNB VPB VPWR X
.ends

* Black-box entry subcircuit for sky130_fd_sc_hd__o21a_4 abstract view
.subckt sky130_fd_sc_hd__o21a_4 A1 A2 B1 VGND VNB VPB VPWR X
.ends

* Black-box entry subcircuit for sky130_fd_sc_hd__tapvpwrvgnd_1 abstract view
.subckt sky130_fd_sc_hd__tapvpwrvgnd_1 VGND VPWR
.ends

* Black-box entry subcircuit for sky130_fd_sc_hd__nor2_4 abstract view
.subckt sky130_fd_sc_hd__nor2_4 A B VGND VNB VPB VPWR Y
.ends

* Black-box entry subcircuit for sky130_fd_sc_hd__nand4_4 abstract view
.subckt sky130_fd_sc_hd__nand4_4 A B C D VGND VNB VPB VPWR Y
.ends

* Black-box entry subcircuit for sky130_fd_sc_hd__o21ai_4 abstract view
.subckt sky130_fd_sc_hd__o21ai_4 A1 A2 B1 VGND VNB VPB VPWR Y
.ends

* Black-box entry subcircuit for sky130_fd_sc_hd__a22oi_4 abstract view
.subckt sky130_fd_sc_hd__a22oi_4 A1 A2 B1 B2 VGND VNB VPB VPWR Y
.ends

* Black-box entry subcircuit for sky130_fd_sc_hd__and2_4 abstract view
.subckt sky130_fd_sc_hd__and2_4 A B VGND VNB VPB VPWR X
.ends

* Black-box entry subcircuit for sky130_fd_sc_hd__a41oi_4 abstract view
.subckt sky130_fd_sc_hd__a41oi_4 A1 A2 A3 A4 B1 VGND VNB VPB VPWR Y
.ends

* Black-box entry subcircuit for sky130_fd_sc_hd__nor3_4 abstract view
.subckt sky130_fd_sc_hd__nor3_4 A B C VGND VNB VPB VPWR Y
.ends

* Black-box entry subcircuit for sky130_fd_sc_hd__nand2_4 abstract view
.subckt sky130_fd_sc_hd__nand2_4 A B VGND VNB VPB VPWR Y
.ends

* Black-box entry subcircuit for sky130_fd_sc_hd__and4_4 abstract view
.subckt sky130_fd_sc_hd__and4_4 A B C D VGND VNB VPB VPWR X
.ends

* Black-box entry subcircuit for sky130_fd_sc_hd__and3_4 abstract view
.subckt sky130_fd_sc_hd__and3_4 A B C VGND VNB VPB VPWR X
.ends

* Black-box entry subcircuit for sky130_fd_sc_hd__a32o_4 abstract view
.subckt sky130_fd_sc_hd__a32o_4 A1 A2 A3 B1 B2 VGND VNB VPB VPWR X
.ends

* Black-box entry subcircuit for sky130_fd_sc_hd__or4_4 abstract view
.subckt sky130_fd_sc_hd__or4_4 A B C D VGND VNB VPB VPWR X
.ends

* Black-box entry subcircuit for sky130_fd_sc_hd__xnor2_4 abstract view
.subckt sky130_fd_sc_hd__xnor2_4 A B VGND VNB VPB VPWR Y
.ends

* Black-box entry subcircuit for sky130_fd_sc_hd__o41ai_4 abstract view
.subckt sky130_fd_sc_hd__o41ai_4 A1 A2 A3 A4 B1 VGND VNB VPB VPWR Y
.ends

* Black-box entry subcircuit for sky130_fd_sc_hd__or2_4 abstract view
.subckt sky130_fd_sc_hd__or2_4 A B VGND VNB VPB VPWR X
.ends

* Black-box entry subcircuit for sky130_fd_sc_hd__o22a_4 abstract view
.subckt sky130_fd_sc_hd__o22a_4 A1 A2 B1 B2 VGND VNB VPB VPWR X
.ends

* Black-box entry subcircuit for sky130_fd_sc_hd__a21boi_4 abstract view
.subckt sky130_fd_sc_hd__a21boi_4 A1 A2 B1_N VGND VNB VPB VPWR Y
.ends

* Black-box entry subcircuit for sky130_fd_sc_hd__nor4_4 abstract view
.subckt sky130_fd_sc_hd__nor4_4 A B C D VGND VNB VPB VPWR Y
.ends

* Black-box entry subcircuit for sky130_fd_sc_hd__o32ai_4 abstract view
.subckt sky130_fd_sc_hd__o32ai_4 A1 A2 A3 B1 B2 VGND VNB VPB VPWR Y
.ends

* Black-box entry subcircuit for sky130_fd_sc_hd__a2bb2oi_4 abstract view
.subckt sky130_fd_sc_hd__a2bb2oi_4 A1_N A2_N B1 B2 VGND VNB VPB VPWR Y
.ends

* Black-box entry subcircuit for sky130_fd_sc_hd__a211o_4 abstract view
.subckt sky130_fd_sc_hd__a211o_4 A1 A2 B1 C1 VGND VNB VPB VPWR X
.ends

* Black-box entry subcircuit for sky130_fd_sc_hd__a2bb2o_4 abstract view
.subckt sky130_fd_sc_hd__a2bb2o_4 A1_N A2_N B1 B2 VGND VNB VPB VPWR X
.ends

* Black-box entry subcircuit for sky130_fd_sc_hd__a41o_4 abstract view
.subckt sky130_fd_sc_hd__a41o_4 A1 A2 A3 A4 B1 VGND VNB VPB VPWR X
.ends

* Black-box entry subcircuit for sky130_fd_sc_hd__dfrtp_4 abstract view
.subckt sky130_fd_sc_hd__dfrtp_4 CLK D RESET_B VGND VNB VPB VPWR Q
.ends

* Black-box entry subcircuit for sky130_fd_sc_hd__a2111oi_4 abstract view
.subckt sky130_fd_sc_hd__a2111oi_4 A1 A2 B1 C1 D1 VGND VNB VPB VPWR Y
.ends

* Black-box entry subcircuit for sky130_fd_sc_hd__a21bo_4 abstract view
.subckt sky130_fd_sc_hd__a21bo_4 A1 A2 B1_N VGND VNB VPB VPWR X
.ends

* Black-box entry subcircuit for sky130_fd_sc_hd__conb_1 abstract view
.subckt sky130_fd_sc_hd__conb_1 VGND VNB VPB VPWR HI LO
.ends

* Black-box entry subcircuit for sky130_fd_sc_hd__o41a_4 abstract view
.subckt sky130_fd_sc_hd__o41a_4 A1 A2 A3 A4 B1 VGND VNB VPB VPWR X
.ends

.subckt decred_controller CLK_LED DATA_AVAILABLE[0] DATA_AVAILABLE[1] DATA_AVAILABLE[2]
+ DATA_AVAILABLE[3] DATA_AVAILABLE[4] DATA_FROM_HASH[0] DATA_FROM_HASH[1] DATA_FROM_HASH[2]
+ DATA_FROM_HASH[3] DATA_FROM_HASH[4] DATA_FROM_HASH[5] DATA_FROM_HASH[6] DATA_FROM_HASH[7]
+ DATA_TO_HASH[0] DATA_TO_HASH[1] DATA_TO_HASH[2] DATA_TO_HASH[3] DATA_TO_HASH[4]
+ DATA_TO_HASH[5] DATA_TO_HASH[6] DATA_TO_HASH[7] EXT_RESET_N_fromHost EXT_RESET_N_toClient
+ HASH_ADDR[0] HASH_ADDR[1] HASH_ADDR[2] HASH_ADDR[3] HASH_ADDR[4] HASH_ADDR[5] HASH_EN
+ HASH_LED ID_fromClient ID_toHost IRQ_OUT_fromClient IRQ_OUT_toHost M1_CLK_IN M1_CLK_SELECT
+ MACRO_RD_SELECT[0] MACRO_RD_SELECT[1] MACRO_RD_SELECT[2] MACRO_RD_SELECT[3] MACRO_RD_SELECT[4]
+ MACRO_WR_SELECT[0] MACRO_WR_SELECT[1] MACRO_WR_SELECT[2] MACRO_WR_SELECT[3] MACRO_WR_SELECT[4]
+ MISO_fromClient MISO_toHost MOSI_fromHost MOSI_toClient PLL_INPUT S1_CLK_IN S1_CLK_SELECT
+ SCLK_fromHost SCLK_toClient SCSN_fromHost SCSN_toClient SPI_CLK_RESET_N m1_clk_local
+ VPWR VGND
X_2037_ _2204_/CLK _2015_/Q VGND VGND VPWR VPWR DATA_TO_HASH[0] sky130_fd_sc_hd__dfxtp_4
X_2106_ _2124_/CLK _2106_/D VGND VGND VPWR VPWR ID_toHost sky130_fd_sc_hd__dfxtp_4
XFILLER_10_306 VGND VGND VPWR VPWR sky130_fd_sc_hd__decap_4
XFILLER_18_406 VGND VGND VPWR VPWR sky130_fd_sc_hd__fill_1
XFILLER_60_206 VGND VGND VPWR VPWR sky130_fd_sc_hd__decap_8
XFILLER_26_30 VGND VGND VPWR VPWR sky130_fd_sc_hd__fill_1
XFILLER_9_104 VGND VGND VPWR VPWR sky130_fd_sc_hd__fill_1
XFILLER_13_144 VGND VGND VPWR VPWR sky130_fd_sc_hd__decap_12
XFILLER_13_199 VGND VGND VPWR VPWR sky130_fd_sc_hd__decap_6
X_1270_ _1269_/Y _2244_/Q _1048_/X VGND VGND VPWR VPWR _1271_/A sky130_fd_sc_hd__nand3_4
XFILLER_3_89 VGND VGND VPWR VPWR sky130_fd_sc_hd__fill_2
X_1606_ _1606_/A VGND VGND VPWR VPWR _2188_/D sky130_fd_sc_hd__inv_2
XFILLER_8_181 VGND VGND VPWR VPWR sky130_fd_sc_hd__fill_1
X_1537_ _1537_/A VGND VGND VPWR VPWR _1537_/X sky130_fd_sc_hd__buf_2
XFILLER_59_306 VGND VGND VPWR VPWR sky130_fd_sc_hd__decap_4
X_1399_ _2138_/Q _1200_/Y _1360_/Y VGND VGND VPWR VPWR _1400_/D sky130_fd_sc_hd__or3_4
X_1468_ _1465_/Y _1972_/A _1467_/Y VGND VGND VPWR VPWR _2231_/D sky130_fd_sc_hd__a21oi_4
XFILLER_63_39 VGND VGND VPWR VPWR sky130_fd_sc_hd__decap_12
XFILLER_50_261 VGND VGND VPWR VPWR sky130_fd_sc_hd__decap_6
XFILLER_10_103 VGND VGND VPWR VPWR sky130_fd_sc_hd__fill_1
XFILLER_10_158 VGND VGND VPWR VPWR sky130_fd_sc_hd__fill_1
XFILLER_2_324 VGND VGND VPWR VPWR sky130_fd_sc_hd__fill_2
XFILLER_41_272 VGND VGND VPWR VPWR sky130_fd_sc_hd__fill_2
XFILLER_49_350 VGND VGND VPWR VPWR sky130_fd_sc_hd__decap_3
X_1322_ _1407_/A VGND VGND VPWR VPWR _1689_/B sky130_fd_sc_hd__buf_2
X_1253_ _1248_/Y _1251_/X _1255_/A VGND VGND VPWR VPWR _1253_/X sky130_fd_sc_hd__a21o_4
Xclkbuf_1_0_0_m1_clk_local clkbuf_0_m1_clk_local/X VGND VGND VPWR VPWR clkbuf_2_1_0_m1_clk_local/A
+ sky130_fd_sc_hd__clkbuf_1
XFILLER_5_184 VGND VGND VPWR VPWR sky130_fd_sc_hd__decap_4
XFILLER_64_397 VGND VGND VPWR VPWR sky130_fd_sc_hd__decap_6
XFILLER_64_342 VGND VGND VPWR VPWR sky130_fd_sc_hd__decap_12
X_1184_ _1179_/X _1180_/X _1183_/Y VGND VGND VPWR VPWR _1184_/Y sky130_fd_sc_hd__a21oi_4
XFILLER_55_342 VGND VGND VPWR VPWR sky130_fd_sc_hd__fill_1
XINSDIODE2_4 _1910_/C VGND VGND VPWR VPWR sky130_fd_sc_hd__diode_2
XFILLER_2_154 VGND VGND VPWR VPWR sky130_fd_sc_hd__decap_12
XFILLER_2_121 VGND VGND VPWR VPWR sky130_fd_sc_hd__decap_4
XFILLER_61_312 VGND VGND VPWR VPWR sky130_fd_sc_hd__decap_6
X_1940_ _1945_/A _1940_/B _1940_/C VGND VGND VPWR VPWR _1940_/Y sky130_fd_sc_hd__nand3_4
X_1871_ _1627_/A _1871_/B VGND VGND VPWR VPWR _2137_/D sky130_fd_sc_hd__xor2_4
XFILLER_9_55 VGND VGND VPWR VPWR sky130_fd_sc_hd__decap_6
XFILLER_50_3 VGND VGND VPWR VPWR sky130_fd_sc_hd__decap_12
X_1236_ _2268_/Q VGND VGND VPWR VPWR _1236_/Y sky130_fd_sc_hd__inv_2
X_1305_ _1244_/B _1068_/D _1966_/C VGND VGND VPWR VPWR _1305_/Y sky130_fd_sc_hd__a21oi_4
Xclkbuf_0_m1_clk_local m1_clk_local VGND VGND VPWR VPWR clkbuf_0_m1_clk_local/X sky130_fd_sc_hd__clkbuf_16
X_1098_ _1080_/A _2262_/Q _1097_/X VGND VGND VPWR VPWR _2270_/D sky130_fd_sc_hd__o21a_4
XFILLER_52_389 VGND VGND VPWR VPWR sky130_fd_sc_hd__decap_8
X_1167_ _1167_/A VGND VGND VPWR VPWR _1167_/X sky130_fd_sc_hd__buf_2
XFILLER_20_242 VGND VGND VPWR VPWR sky130_fd_sc_hd__decap_3
XFILLER_20_264 VGND VGND VPWR VPWR sky130_fd_sc_hd__decap_4
XFILLER_47_117 VGND VGND VPWR VPWR sky130_fd_sc_hd__decap_4
XFILLER_18_42 VGND VGND VPWR VPWR sky130_fd_sc_hd__decap_6
XFILLER_18_75 VGND VGND VPWR VPWR sky130_fd_sc_hd__fill_1
XPHY_554 VGND VPWR sky130_fd_sc_hd__tapvpwrvgnd_1
XPHY_543 VGND VPWR sky130_fd_sc_hd__tapvpwrvgnd_1
XPHY_532 VGND VPWR sky130_fd_sc_hd__tapvpwrvgnd_1
XPHY_521 VGND VPWR sky130_fd_sc_hd__tapvpwrvgnd_1
XPHY_510 VGND VPWR sky130_fd_sc_hd__tapvpwrvgnd_1
XFILLER_43_367 VGND VGND VPWR VPWR sky130_fd_sc_hd__decap_6
XFILLER_43_345 VGND VGND VPWR VPWR sky130_fd_sc_hd__decap_6
XFILLER_34_96 VGND VGND VPWR VPWR sky130_fd_sc_hd__decap_8
X_2070_ _2075_/CLK _2070_/D VGND VGND VPWR VPWR _2070_/Q sky130_fd_sc_hd__dfxtp_4
Xclkbuf_3_3_0_m1_clk_local clkbuf_3_3_0_m1_clk_local/A VGND VGND VPWR VPWR _2061_/CLK
+ sky130_fd_sc_hd__clkbuf_1
XFILLER_38_106 VGND VGND VPWR VPWR sky130_fd_sc_hd__decap_4
XFILLER_19_331 VGND VGND VPWR VPWR sky130_fd_sc_hd__decap_4
XFILLER_61_175 VGND VGND VPWR VPWR sky130_fd_sc_hd__decap_8
XFILLER_61_131 VGND VGND VPWR VPWR sky130_fd_sc_hd__fill_1
XFILLER_19_375 VGND VGND VPWR VPWR sky130_fd_sc_hd__decap_8
X_1021_ _2006_/Q _2008_/Q VGND VGND VPWR VPWR _1022_/A sky130_fd_sc_hd__nor2_4
X_1785_ _2139_/Q VGND VGND VPWR VPWR _1785_/Y sky130_fd_sc_hd__inv_2
X_1854_ _1854_/A _1794_/Y VGND VGND VPWR VPWR _1854_/Y sky130_fd_sc_hd__nor2_4
X_1923_ _1626_/X VGND VGND VPWR VPWR _1923_/X sky130_fd_sc_hd__buf_2
X_2199_ _2027_/CLK _1567_/X VGND VGND VPWR VPWR _2199_/Q sky130_fd_sc_hd__dfxtp_4
X_2268_ _2268_/CLK _2268_/D VGND VGND VPWR VPWR _2268_/Q sky130_fd_sc_hd__dfxtp_4
XFILLER_25_312 VGND VGND VPWR VPWR sky130_fd_sc_hd__decap_4
X_1219_ _1209_/X _1214_/C _1202_/Y VGND VGND VPWR VPWR _1219_/X sky130_fd_sc_hd__a21o_4
XFILLER_52_197 VGND VGND VPWR VPWR sky130_fd_sc_hd__decap_8
XFILLER_40_348 VGND VGND VPWR VPWR sky130_fd_sc_hd__decap_4
XFILLER_4_205 VGND VGND VPWR VPWR sky130_fd_sc_hd__decap_8
XFILLER_20_32 VGND VGND VPWR VPWR sky130_fd_sc_hd__decap_4
XFILLER_0_400 VGND VGND VPWR VPWR sky130_fd_sc_hd__decap_3
XFILLER_31_304 VGND VGND VPWR VPWR sky130_fd_sc_hd__fill_1
XFILLER_16_312 VGND VGND VPWR VPWR sky130_fd_sc_hd__decap_6
XPHY_395 VGND VPWR sky130_fd_sc_hd__tapvpwrvgnd_1
XPHY_384 VGND VPWR sky130_fd_sc_hd__tapvpwrvgnd_1
XPHY_373 VGND VPWR sky130_fd_sc_hd__tapvpwrvgnd_1
XPHY_362 VGND VPWR sky130_fd_sc_hd__tapvpwrvgnd_1
XPHY_351 VGND VPWR sky130_fd_sc_hd__tapvpwrvgnd_1
XPHY_340 VGND VPWR sky130_fd_sc_hd__tapvpwrvgnd_1
XFILLER_6_23 VGND VGND VPWR VPWR sky130_fd_sc_hd__fill_1
X_1570_ _1564_/C _1552_/A _1528_/A _2198_/Q VGND VGND VPWR VPWR _1570_/Y sky130_fd_sc_hd__nand4_4
X_2053_ _2256_/CLK _2053_/D VGND VGND VPWR VPWR _2053_/Q sky130_fd_sc_hd__dfxtp_4
X_2122_ _2130_/CLK _1908_/Y VGND VGND VPWR VPWR _2020_/D sky130_fd_sc_hd__dfxtp_4
XFILLER_13_3 VGND VGND VPWR VPWR sky130_fd_sc_hd__decap_12
XFILLER_34_197 VGND VGND VPWR VPWR sky130_fd_sc_hd__fill_1
X_1004_ _1007_/A VGND VGND VPWR VPWR _1004_/Y sky130_fd_sc_hd__inv_2
X_1768_ _1751_/X _1765_/Y _1767_/Y VGND VGND VPWR VPWR _1768_/Y sky130_fd_sc_hd__o21ai_4
X_1906_ _1176_/Y _1905_/A _1905_/Y VGND VGND VPWR VPWR _1906_/Y sky130_fd_sc_hd__o21ai_4
X_1837_ _2152_/Q _1836_/X VGND VGND VPWR VPWR _1837_/X sky130_fd_sc_hd__xor2_4
X_1699_ _1997_/A _1368_/Y _1698_/Y _1398_/X VGND VGND VPWR VPWR _1699_/Y sky130_fd_sc_hd__a22oi_4
XFILLER_40_167 VGND VGND VPWR VPWR sky130_fd_sc_hd__decap_12
XFILLER_40_112 VGND VGND VPWR VPWR sky130_fd_sc_hd__fill_1
XFILLER_9_319 VGND VGND VPWR VPWR sky130_fd_sc_hd__decap_6
XFILLER_15_98 VGND VGND VPWR VPWR sky130_fd_sc_hd__decap_4
XFILLER_48_289 VGND VGND VPWR VPWR sky130_fd_sc_hd__decap_4
XFILLER_48_234 VGND VGND VPWR VPWR sky130_fd_sc_hd__decap_8
XFILLER_31_134 VGND VGND VPWR VPWR sky130_fd_sc_hd__decap_4
XFILLER_31_123 VGND VGND VPWR VPWR sky130_fd_sc_hd__decap_6
XFILLER_31_101 VGND VGND VPWR VPWR sky130_fd_sc_hd__decap_4
XPHY_170 VGND VPWR sky130_fd_sc_hd__tapvpwrvgnd_1
XFILLER_16_142 VGND VGND VPWR VPWR sky130_fd_sc_hd__decap_4
X_1622_ _1540_/B ID_fromClient VGND VGND VPWR VPWR _1622_/X sky130_fd_sc_hd__and2_4
XPHY_181 VGND VPWR sky130_fd_sc_hd__tapvpwrvgnd_1
XPHY_192 VGND VPWR sky130_fd_sc_hd__tapvpwrvgnd_1
X_1553_ _1530_/C _1552_/X _1517_/A _1542_/X _1492_/A VGND VGND VPWR VPWR _1553_/Y
+ sky130_fd_sc_hd__a41oi_4
XFILLER_39_223 VGND VGND VPWR VPWR sky130_fd_sc_hd__fill_1
X_1484_ _1481_/X IRQ_OUT_fromClient VGND VGND VPWR VPWR _1484_/X sky130_fd_sc_hd__and2_4
X_2036_ _2204_/CLK _2036_/D VGND VGND VPWR VPWR _2036_/Q sky130_fd_sc_hd__dfxtp_4
XFILLER_39_245 VGND VGND VPWR VPWR sky130_fd_sc_hd__decap_3
X_2105_ _2131_/CLK _2105_/D VGND VGND VPWR VPWR _2105_/Q sky130_fd_sc_hd__dfxtp_4
XFILLER_22_101 VGND VGND VPWR VPWR sky130_fd_sc_hd__decap_3
XFILLER_22_167 VGND VGND VPWR VPWR sky130_fd_sc_hd__decap_8
XFILLER_45_248 VGND VGND VPWR VPWR sky130_fd_sc_hd__decap_4
XFILLER_26_86 VGND VGND VPWR VPWR sky130_fd_sc_hd__decap_6
XFILLER_13_123 VGND VGND VPWR VPWR sky130_fd_sc_hd__fill_2
XFILLER_13_156 VGND VGND VPWR VPWR sky130_fd_sc_hd__fill_2
XFILLER_42_30 VGND VGND VPWR VPWR sky130_fd_sc_hd__fill_1
XFILLER_51_218 VGND VGND VPWR VPWR sky130_fd_sc_hd__decap_8
X_1536_ _2202_/Q VGND VGND VPWR VPWR _1538_/B sky130_fd_sc_hd__inv_2
X_1605_ _1523_/B _1603_/Y _1604_/Y VGND VGND VPWR VPWR _1606_/A sky130_fd_sc_hd__a21o_4
X_1467_ _2175_/Q _1442_/X _1461_/X VGND VGND VPWR VPWR _1467_/Y sky130_fd_sc_hd__o21ai_4
X_1398_ _1369_/Y VGND VGND VPWR VPWR _1398_/X sky130_fd_sc_hd__buf_2
XFILLER_42_218 VGND VGND VPWR VPWR sky130_fd_sc_hd__decap_4
XFILLER_35_292 VGND VGND VPWR VPWR sky130_fd_sc_hd__decap_4
X_2019_ _2187_/CLK _1910_/C VGND VGND VPWR VPWR _2019_/Q sky130_fd_sc_hd__dfxtp_4
XFILLER_12_88 VGND VGND VPWR VPWR sky130_fd_sc_hd__decap_4
XFILLER_18_204 VGND VGND VPWR VPWR sky130_fd_sc_hd__decap_8
XFILLER_53_84 VGND VGND VPWR VPWR sky130_fd_sc_hd__decap_4
XFILLER_53_51 VGND VGND VPWR VPWR sky130_fd_sc_hd__decap_8
XFILLER_49_373 VGND VGND VPWR VPWR sky130_fd_sc_hd__decap_4
XFILLER_49_362 VGND VGND VPWR VPWR sky130_fd_sc_hd__decap_4
X_1321_ _1321_/A VGND VGND VPWR VPWR _1407_/A sky130_fd_sc_hd__buf_2
X_1252_ _1986_/B VGND VGND VPWR VPWR _1255_/A sky130_fd_sc_hd__inv_2
XFILLER_64_354 VGND VGND VPWR VPWR sky130_fd_sc_hd__decap_12
X_1183_ _1152_/A _1167_/X _1560_/B VGND VGND VPWR VPWR _1183_/Y sky130_fd_sc_hd__o21ai_4
Xclkbuf_3_4_0_addressalyzerBlock.SPI_CLK clkbuf_3_5_0_addressalyzerBlock.SPI_CLK/A
+ VGND VGND VPWR VPWR clkbuf_4_9_0_addressalyzerBlock.SPI_CLK/A sky130_fd_sc_hd__clkbuf_1
X_1519_ _2195_/Q VGND VGND VPWR VPWR _1519_/Y sky130_fd_sc_hd__inv_2
XINSDIODE2_5 _1905_/C VGND VGND VPWR VPWR sky130_fd_sc_hd__diode_2
XFILLER_55_310 VGND VGND VPWR VPWR sky130_fd_sc_hd__decap_8
XFILLER_15_207 VGND VGND VPWR VPWR sky130_fd_sc_hd__decap_4
XFILLER_11_402 VGND VGND VPWR VPWR sky130_fd_sc_hd__decap_4
XFILLER_23_65 VGND VGND VPWR VPWR sky130_fd_sc_hd__decap_12
XFILLER_48_40 VGND VGND VPWR VPWR sky130_fd_sc_hd__decap_4
XFILLER_2_144 VGND VGND VPWR VPWR sky130_fd_sc_hd__decap_8
XFILLER_46_398 VGND VGND VPWR VPWR sky130_fd_sc_hd__decap_8
XFILLER_46_376 VGND VGND VPWR VPWR sky130_fd_sc_hd__decap_4
XFILLER_0_25 VGND VGND VPWR VPWR sky130_fd_sc_hd__decap_6
XFILLER_0_69 VGND VGND VPWR VPWR sky130_fd_sc_hd__fill_1
X_1870_ _1786_/Y _1788_/Y VGND VGND VPWR VPWR _1871_/B sky130_fd_sc_hd__nor2_4
XFILLER_9_78 VGND VGND VPWR VPWR sky130_fd_sc_hd__decap_4
XFILLER_43_3 VGND VGND VPWR VPWR sky130_fd_sc_hd__decap_12
X_1304_ _1300_/X _1302_/X _1303_/Y VGND VGND VPWR VPWR _1304_/Y sky130_fd_sc_hd__a21oi_4
X_1166_ _1165_/X VGND VGND VPWR VPWR _1167_/A sky130_fd_sc_hd__buf_2
X_1235_ _1186_/X _1218_/Y _1225_/Y _1232_/Y _1234_/Y VGND VGND VPWR VPWR _2249_/D
+ sky130_fd_sc_hd__a41oi_4
X_1097_ _2281_/Q _2270_/Q _1090_/X VGND VGND VPWR VPWR _1097_/X sky130_fd_sc_hd__o21a_4
X_1999_ _1598_/A _2222_/Q _1999_/C VGND VGND VPWR VPWR _1999_/Y sky130_fd_sc_hd__nor3_4
XFILLER_20_276 VGND VGND VPWR VPWR sky130_fd_sc_hd__decap_4
XPHY_500 VGND VPWR sky130_fd_sc_hd__tapvpwrvgnd_1
XFILLER_55_184 VGND VGND VPWR VPWR sky130_fd_sc_hd__fill_1
XFILLER_28_398 VGND VGND VPWR VPWR sky130_fd_sc_hd__decap_8
XFILLER_18_32 VGND VGND VPWR VPWR sky130_fd_sc_hd__decap_6
XPHY_555 VGND VPWR sky130_fd_sc_hd__tapvpwrvgnd_1
XPHY_544 VGND VPWR sky130_fd_sc_hd__tapvpwrvgnd_1
XPHY_533 VGND VPWR sky130_fd_sc_hd__tapvpwrvgnd_1
XPHY_522 VGND VPWR sky130_fd_sc_hd__tapvpwrvgnd_1
XPHY_511 VGND VPWR sky130_fd_sc_hd__tapvpwrvgnd_1
XFILLER_7_236 VGND VGND VPWR VPWR sky130_fd_sc_hd__fill_1
XFILLER_11_243 VGND VGND VPWR VPWR sky130_fd_sc_hd__fill_1
XFILLER_11_254 VGND VGND VPWR VPWR sky130_fd_sc_hd__decap_6
XFILLER_50_74 VGND VGND VPWR VPWR sky130_fd_sc_hd__fill_1
XFILLER_7_258 VGND VGND VPWR VPWR sky130_fd_sc_hd__decap_12
XFILLER_59_83 VGND VGND VPWR VPWR sky130_fd_sc_hd__decap_8
X_1020_ _2006_/Q VGND VGND VPWR VPWR _1039_/A sky130_fd_sc_hd__buf_2
XFILLER_46_162 VGND VGND VPWR VPWR sky130_fd_sc_hd__fill_1
XFILLER_34_324 VGND VGND VPWR VPWR sky130_fd_sc_hd__decap_12
X_1922_ _1922_/A VGND VGND VPWR VPWR _1922_/Y sky130_fd_sc_hd__inv_2
X_1853_ _1783_/B VGND VGND VPWR VPWR _1854_/A sky130_fd_sc_hd__inv_2
X_1784_ _2148_/Q _1430_/A VGND VGND VPWR VPWR _1784_/Y sky130_fd_sc_hd__nand2_4
X_2267_ _2075_/CLK _1108_/X VGND VGND VPWR VPWR _2267_/Q sky130_fd_sc_hd__dfxtp_4
X_2198_ _2027_/CLK _1572_/Y VGND VGND VPWR VPWR _2198_/Q sky130_fd_sc_hd__dfxtp_4
XFILLER_37_140 VGND VGND VPWR VPWR sky130_fd_sc_hd__decap_4
X_1149_ _2255_/Q VGND VGND VPWR VPWR _1150_/A sky130_fd_sc_hd__buf_2
X_1218_ _1012_/Y _1158_/C _1161_/Y _1263_/A _1162_/Y VGND VGND VPWR VPWR _1218_/Y
+ sky130_fd_sc_hd__a41oi_4
XFILLER_20_88 VGND VGND VPWR VPWR sky130_fd_sc_hd__decap_4
XFILLER_29_53 VGND VGND VPWR VPWR sky130_fd_sc_hd__fill_1
XFILLER_28_140 VGND VGND VPWR VPWR sky130_fd_sc_hd__decap_4
XPHY_352 VGND VPWR sky130_fd_sc_hd__tapvpwrvgnd_1
XFILLER_31_349 VGND VGND VPWR VPWR sky130_fd_sc_hd__decap_8
XPHY_341 VGND VPWR sky130_fd_sc_hd__tapvpwrvgnd_1
XPHY_330 VGND VPWR sky130_fd_sc_hd__tapvpwrvgnd_1
XFILLER_28_173 VGND VGND VPWR VPWR sky130_fd_sc_hd__decap_6
XFILLER_16_368 VGND VGND VPWR VPWR sky130_fd_sc_hd__decap_3
XFILLER_61_51 VGND VGND VPWR VPWR sky130_fd_sc_hd__decap_8
XPHY_396 VGND VPWR sky130_fd_sc_hd__tapvpwrvgnd_1
XPHY_385 VGND VPWR sky130_fd_sc_hd__tapvpwrvgnd_1
XPHY_374 VGND VPWR sky130_fd_sc_hd__tapvpwrvgnd_1
XPHY_363 VGND VPWR sky130_fd_sc_hd__tapvpwrvgnd_1
X_1003_ _1003_/A VGND VGND VPWR VPWR _1986_/D sky130_fd_sc_hd__buf_2
X_2121_ _2102_/CLK _2121_/D VGND VGND VPWR VPWR _1910_/C sky130_fd_sc_hd__dfxtp_4
X_2052_ _2163_/CLK _1681_/A VGND VGND VPWR VPWR _2047_/D sky130_fd_sc_hd__dfxtp_4
XFILLER_34_154 VGND VGND VPWR VPWR sky130_fd_sc_hd__decap_4
X_1905_ _1905_/A _1897_/B _1905_/C VGND VGND VPWR VPWR _1905_/Y sky130_fd_sc_hd__nand3_4
XFILLER_22_305 VGND VGND VPWR VPWR sky130_fd_sc_hd__decap_4
X_1767_ _1767_/A _1767_/B _2036_/D VGND VGND VPWR VPWR _1767_/Y sky130_fd_sc_hd__nand3_4
XFILLER_30_393 VGND VGND VPWR VPWR sky130_fd_sc_hd__decap_4
X_1836_ _1836_/A _2151_/Q _1838_/B _1740_/X VGND VGND VPWR VPWR _1836_/X sky130_fd_sc_hd__and4_4
X_1698_ _1679_/Y _1696_/Y _1697_/Y VGND VGND VPWR VPWR _1698_/Y sky130_fd_sc_hd__o21ai_4
XFILLER_57_257 VGND VGND VPWR VPWR sky130_fd_sc_hd__decap_4
XFILLER_57_224 VGND VGND VPWR VPWR sky130_fd_sc_hd__decap_3
XFILLER_57_279 VGND VGND VPWR VPWR sky130_fd_sc_hd__fill_1
XFILLER_25_165 VGND VGND VPWR VPWR sky130_fd_sc_hd__decap_4
XFILLER_13_327 VGND VGND VPWR VPWR sky130_fd_sc_hd__decap_4
XFILLER_15_55 VGND VGND VPWR VPWR sky130_fd_sc_hd__decap_6
XFILLER_40_179 VGND VGND VPWR VPWR sky130_fd_sc_hd__decap_3
XFILLER_56_62 VGND VGND VPWR VPWR sky130_fd_sc_hd__decap_4
XFILLER_56_40 VGND VGND VPWR VPWR sky130_fd_sc_hd__decap_3
XFILLER_16_121 VGND VGND VPWR VPWR sky130_fd_sc_hd__decap_6
XPHY_182 VGND VPWR sky130_fd_sc_hd__tapvpwrvgnd_1
XPHY_171 VGND VPWR sky130_fd_sc_hd__tapvpwrvgnd_1
XPHY_160 VGND VPWR sky130_fd_sc_hd__tapvpwrvgnd_1
XPHY_193 VGND VPWR sky130_fd_sc_hd__tapvpwrvgnd_1
XFILLER_12_371 VGND VGND VPWR VPWR sky130_fd_sc_hd__decap_4
XFILLER_12_382 VGND VGND VPWR VPWR sky130_fd_sc_hd__decap_4
XFILLER_16_187 VGND VGND VPWR VPWR sky130_fd_sc_hd__decap_8
X_1552_ _1552_/A _1552_/B _2199_/Q _1530_/D VGND VGND VPWR VPWR _1552_/X sky130_fd_sc_hd__and4_4
X_1621_ _1540_/B _1621_/B VGND VGND VPWR VPWR _2182_/D sky130_fd_sc_hd__and2_4
XFILLER_8_342 VGND VGND VPWR VPWR sky130_fd_sc_hd__decap_4
XFILLER_12_393 VGND VGND VPWR VPWR sky130_fd_sc_hd__decap_4
XFILLER_39_235 VGND VGND VPWR VPWR sky130_fd_sc_hd__decap_8
X_2104_ _2131_/CLK _1946_/Y VGND VGND VPWR VPWR HASH_LED sky130_fd_sc_hd__dfxtp_4
X_1483_ _1481_/X _1483_/B VGND VGND VPWR VPWR _2225_/D sky130_fd_sc_hd__and2_4
XFILLER_62_271 VGND VGND VPWR VPWR sky130_fd_sc_hd__decap_4
X_2035_ _2061_/CLK _2035_/D VGND VGND VPWR VPWR _2035_/Q sky130_fd_sc_hd__dfxtp_4
XFILLER_54_227 VGND VGND VPWR VPWR sky130_fd_sc_hd__decap_6
XFILLER_47_290 VGND VGND VPWR VPWR sky130_fd_sc_hd__decap_4
X_1819_ _1819_/A _1825_/B _1816_/D _2158_/Q VGND VGND VPWR VPWR _1819_/Y sky130_fd_sc_hd__nand4_4
XFILLER_26_32 VGND VGND VPWR VPWR sky130_fd_sc_hd__decap_6
XFILLER_53_271 VGND VGND VPWR VPWR sky130_fd_sc_hd__decap_4
XFILLER_13_179 VGND VGND VPWR VPWR sky130_fd_sc_hd__decap_4
XFILLER_42_64 VGND VGND VPWR VPWR sky130_fd_sc_hd__decap_4
XFILLER_3_25 VGND VGND VPWR VPWR sky130_fd_sc_hd__decap_12
XFILLER_44_271 VGND VGND VPWR VPWR sky130_fd_sc_hd__decap_4
XFILLER_29_290 VGND VGND VPWR VPWR sky130_fd_sc_hd__decap_4
X_1535_ _1532_/C VGND VGND VPWR VPWR _1539_/A sky130_fd_sc_hd__buf_2
X_1604_ _1523_/B _1603_/Y _1485_/A VGND VGND VPWR VPWR _1604_/Y sky130_fd_sc_hd__o21ai_4
X_1397_ _1357_/X _2146_/Q _1362_/X VGND VGND VPWR VPWR _1397_/Y sky130_fd_sc_hd__a21oi_4
X_1466_ _1442_/X VGND VGND VPWR VPWR _1972_/A sky130_fd_sc_hd__buf_2
X_2018_ _2256_/CLK _2018_/D VGND VGND VPWR VPWR _2018_/Q sky130_fd_sc_hd__dfxtp_4
XFILLER_10_149 VGND VGND VPWR VPWR sky130_fd_sc_hd__decap_4
XFILLER_58_396 VGND VGND VPWR VPWR sky130_fd_sc_hd__fill_1
X_1320_ _1324_/A VGND VGND VPWR VPWR _1321_/A sky130_fd_sc_hd__buf_2
XFILLER_64_311 VGND VGND VPWR VPWR sky130_fd_sc_hd__decap_6
XFILLER_64_300 VGND VGND VPWR VPWR sky130_fd_sc_hd__decap_8
XFILLER_49_396 VGND VGND VPWR VPWR sky130_fd_sc_hd__decap_8
X_1182_ _1485_/A VGND VGND VPWR VPWR _1560_/B sky130_fd_sc_hd__buf_2
X_1251_ _1264_/A VGND VGND VPWR VPWR _1251_/X sky130_fd_sc_hd__buf_2
XFILLER_64_366 VGND VGND VPWR VPWR sky130_fd_sc_hd__decap_6
XFILLER_32_252 VGND VGND VPWR VPWR sky130_fd_sc_hd__decap_4
XFILLER_17_271 VGND VGND VPWR VPWR sky130_fd_sc_hd__decap_12
XFILLER_32_285 VGND VGND VPWR VPWR sky130_fd_sc_hd__decap_6
X_1518_ _2194_/Q VGND VGND VPWR VPWR _1550_/A sky130_fd_sc_hd__inv_2
X_1449_ _1438_/B _1444_/X _1309_/X VGND VGND VPWR VPWR _1449_/Y sky130_fd_sc_hd__o21ai_4
XINSDIODE2_6 _2166_/Q VGND VGND VPWR VPWR sky130_fd_sc_hd__diode_2
XFILLER_23_77 VGND VGND VPWR VPWR sky130_fd_sc_hd__decap_8
XFILLER_23_296 VGND VGND VPWR VPWR sky130_fd_sc_hd__decap_8
XFILLER_3_3 VGND VGND VPWR VPWR sky130_fd_sc_hd__decap_3
XFILLER_48_74 VGND VGND VPWR VPWR sky130_fd_sc_hd__fill_2
XFILLER_64_51 VGND VGND VPWR VPWR sky130_fd_sc_hd__decap_8
XFILLER_61_303 VGND VGND VPWR VPWR sky130_fd_sc_hd__fill_2
XFILLER_0_59 VGND VGND VPWR VPWR sky130_fd_sc_hd__decap_3
XFILLER_14_274 VGND VGND VPWR VPWR sky130_fd_sc_hd__fill_1
X_1303_ _1068_/C _1264_/X _1266_/X VGND VGND VPWR VPWR _1303_/Y sky130_fd_sc_hd__o21ai_4
XFILLER_36_3 VGND VGND VPWR VPWR sky130_fd_sc_hd__decap_12
XFILLER_64_152 VGND VGND VPWR VPWR sky130_fd_sc_hd__decap_3
X_1096_ _1080_/A _2263_/Q _1095_/X VGND VGND VPWR VPWR _1096_/X sky130_fd_sc_hd__o21a_4
XFILLER_49_182 VGND VGND VPWR VPWR sky130_fd_sc_hd__fill_1
XFILLER_49_171 VGND VGND VPWR VPWR sky130_fd_sc_hd__decap_4
X_1234_ _1918_/D _1178_/X _1084_/X VGND VGND VPWR VPWR _1234_/Y sky130_fd_sc_hd__o21ai_4
X_1165_ _1249_/A _1163_/Y _1249_/C VGND VGND VPWR VPWR _1165_/X sky130_fd_sc_hd__and3_4
XFILLER_20_200 VGND VGND VPWR VPWR sky130_fd_sc_hd__decap_4
X_1998_ _2067_/Q _2068_/Q _1998_/C VGND VGND VPWR VPWR IRQ_OUT_toHost sky130_fd_sc_hd__or3_4
XFILLER_28_311 VGND VGND VPWR VPWR sky130_fd_sc_hd__decap_4
XPHY_534 VGND VPWR sky130_fd_sc_hd__tapvpwrvgnd_1
XPHY_523 VGND VPWR sky130_fd_sc_hd__tapvpwrvgnd_1
XPHY_512 VGND VPWR sky130_fd_sc_hd__tapvpwrvgnd_1
XPHY_501 VGND VPWR sky130_fd_sc_hd__tapvpwrvgnd_1
XFILLER_43_325 VGND VGND VPWR VPWR sky130_fd_sc_hd__fill_1
XFILLER_34_32 VGND VGND VPWR VPWR sky130_fd_sc_hd__decap_3
XFILLER_18_88 VGND VGND VPWR VPWR sky130_fd_sc_hd__decap_4
XPHY_556 VGND VPWR sky130_fd_sc_hd__tapvpwrvgnd_1
XPHY_545 VGND VPWR sky130_fd_sc_hd__tapvpwrvgnd_1
XFILLER_51_380 VGND VGND VPWR VPWR sky130_fd_sc_hd__decap_4
XFILLER_34_87 VGND VGND VPWR VPWR sky130_fd_sc_hd__decap_4
XFILLER_11_200 VGND VGND VPWR VPWR sky130_fd_sc_hd__decap_6
XFILLER_59_40 VGND VGND VPWR VPWR sky130_fd_sc_hd__decap_4
XFILLER_19_355 VGND VGND VPWR VPWR sky130_fd_sc_hd__decap_8
XFILLER_61_188 VGND VGND VPWR VPWR sky130_fd_sc_hd__fill_1
X_1921_ _1918_/Y _1954_/B _2116_/Q _1349_/X _1920_/Y VGND VGND VPWR VPWR _1921_/X
+ sky130_fd_sc_hd__a32o_4
X_1852_ _1852_/A _1851_/Y VGND VGND VPWR VPWR _1852_/X sky130_fd_sc_hd__xor2_4
X_1783_ _2146_/Q _1783_/B VGND VGND VPWR VPWR _1846_/A sky130_fd_sc_hd__nand2_4
X_2266_ _2075_/CLK _2266_/D VGND VGND VPWR VPWR _2266_/Q sky130_fd_sc_hd__dfxtp_4
X_2197_ _2027_/CLK _2197_/D VGND VGND VPWR VPWR _1528_/A sky130_fd_sc_hd__dfxtp_4
X_1079_ _2281_/Q VGND VGND VPWR VPWR _1080_/A sky130_fd_sc_hd__inv_2
XFILLER_40_317 VGND VGND VPWR VPWR sky130_fd_sc_hd__decap_12
X_1148_ _1003_/A _1147_/X _2275_/Q VGND VGND VPWR VPWR _1148_/X sky130_fd_sc_hd__o21a_4
X_1217_ _1217_/A VGND VGND VPWR VPWR _1263_/A sky130_fd_sc_hd__buf_2
XFILLER_25_347 VGND VGND VPWR VPWR sky130_fd_sc_hd__decap_6
XFILLER_4_218 VGND VGND VPWR VPWR sky130_fd_sc_hd__decap_4
XFILLER_48_406 VGND VGND VPWR VPWR sky130_fd_sc_hd__fill_1
XFILLER_43_100 VGND VGND VPWR VPWR sky130_fd_sc_hd__decap_4
XFILLER_29_65 VGND VGND VPWR VPWR sky130_fd_sc_hd__decap_6
XFILLER_28_152 VGND VGND VPWR VPWR sky130_fd_sc_hd__fill_1
XFILLER_28_130 VGND VGND VPWR VPWR sky130_fd_sc_hd__decap_6
XFILLER_45_97 VGND VGND VPWR VPWR sky130_fd_sc_hd__decap_4
XFILLER_43_188 VGND VGND VPWR VPWR sky130_fd_sc_hd__decap_8
XFILLER_43_155 VGND VGND VPWR VPWR sky130_fd_sc_hd__decap_8
XPHY_386 VGND VPWR sky130_fd_sc_hd__tapvpwrvgnd_1
XPHY_375 VGND VPWR sky130_fd_sc_hd__tapvpwrvgnd_1
XPHY_364 VGND VPWR sky130_fd_sc_hd__tapvpwrvgnd_1
XPHY_353 VGND VPWR sky130_fd_sc_hd__tapvpwrvgnd_1
XPHY_342 VGND VPWR sky130_fd_sc_hd__tapvpwrvgnd_1
XPHY_331 VGND VPWR sky130_fd_sc_hd__tapvpwrvgnd_1
XPHY_320 VGND VPWR sky130_fd_sc_hd__tapvpwrvgnd_1
XFILLER_61_96 VGND VGND VPWR VPWR sky130_fd_sc_hd__decap_8
XPHY_397 VGND VPWR sky130_fd_sc_hd__tapvpwrvgnd_1
X_2120_ _2131_/CLK _2120_/D VGND VGND VPWR VPWR _2018_/D sky130_fd_sc_hd__dfxtp_4
XFILLER_34_122 VGND VGND VPWR VPWR sky130_fd_sc_hd__decap_4
X_1002_ _2009_/Q VGND VGND VPWR VPWR _1003_/A sky130_fd_sc_hd__buf_2
X_2051_ _2163_/CLK _1703_/A VGND VGND VPWR VPWR _2051_/Q sky130_fd_sc_hd__dfxtp_4
XFILLER_30_350 VGND VGND VPWR VPWR sky130_fd_sc_hd__decap_4